12
Lattice="21.7645 0.0 0.0 0.0 21.7645 0.0 0.0 0.0 21.7645"
Si 766 8.72671 21.506600000000002 17.8265
Si 990 9.833459999999999 1.7382300000000015 19.2094
O 9 10.3464 3.2141100000000016 18.543500000000005
O 118 9.158249999999999 1.370899999999999 17.6521
O 118 9.158249999999999 1.370899999999999 17.6521
O 327 9.191779999999998 0.14009999999999678 19.5192
O 327 9.191779999999998 0.14009999999999678 19.5192
O 428 7.573869999999999 20.500200000000003 18.384200000000003
O 433 11.3554 1.2062999999999988 19.552199999999996
O 518 10.159200000000002 20.8648 17.6801
O 621 9.102239999999998 2.437709999999999 20.4213
O 634 8.059740000000001 21.6848 16.332400000000003
