6
Lattice="21.7645 0.0 0.0 0.0 21.7645 0.0 0.0 0.0 21.7645"
Si 940 8.5413 10.9571 21.2901
O 26 7.200240000000001 11.719100000000001 20.475400000000004
O 32 9.07957 12.564800000000002 21.358900000000002
O 35 10.119299999999999 10.4372 21.7127
O 39 7.782520000000002 10.569399999999998 0.8892999999999986
O 145 8.66367 9.76389 20.109400000000004
