6
Lattice="21.7645 0.0 0.0 0.0 21.7645 0.0 0.0 0.0 21.7645"
Si 940 8.80273 10.954899999999999 21.1812
O 26 7.4435600000000015 11.812999999999999 20.537000000000003
O 32 9.33869 12.563500000000001 21.2533
O 35 10.318000000000001 10.393899999999999 21.5448
O 39 7.983460000000001 10.484599999999997 0.7055999999999969
O 145 8.73789 9.772859999999998 20.019000000000002
