12
Lattice="21.7645 0.0 0.0 0.0 21.7645 0.0 0.0 0.0 21.7645"
Si 720 18.2544 1.8670000000000009 7.154419999999998
Si 843 20.550099999999997 0.7712000000000003 6.70984
O 174 18.883099999999995 0.6901999999999973 6.010659999999998
O 174 18.883099999999995 0.6901999999999973 6.010659999999998
O 275 20.867299999999997 2.0698599999999985 5.734780000000001
O 281 17.8484 2.4620999999999995 8.61807
O 390 18.733100000000004 3.270900000000001 6.58841
O 398 0.23849999999999483 0.6207999999999956 7.601119999999998
O 470 16.7732 1.7275500000000008 6.489259999999998
O 586 19.680699999999998 1.2379000000000033 8.0275
O 586 19.680699999999998 1.2379000000000033 8.0275
O 614 20.851899999999997 21.0615 6.072430000000001
