6
Lattice="21.7645 0.0 0.0 0.0 21.7645 0.0 0.0 0.0 21.7645"
Si 827 6.4918900000000015 14.9866 5.47081
O 24 6.611519999999999 15.948000000000004 7.09421
O 55 5.62941 14.034099999999999 6.399889999999999
O 96 6.591280000000001 16.529800000000005 4.882749999999998
O 532 6.158260000000002 14.515699999999999 3.9203399999999995
O 645 8.02242 14.337399999999999 5.882549999999998
