6
Lattice="21.7645 0.0 0.0 0.0 21.7645 0.0 0.0 0.0 21.7645"
Si 825 18.6581 1.2027 2.8029399999999995
O 369 19.6403 2.3741899999999987 3.535920000000001
O 377 19.0397 0.32260000000000133 1.505899999999997
O 415 17.7251 0.4982999999999933 3.899180000000001
O 508 19.858699999999995 21.5737 3.70073
O 577 17.5866 2.165379999999999 2.00385
