12
Lattice="21.7645 0.0 0.0 0.0 21.7645 0.0 0.0 0.0 21.7645"
Si 885 6.645880000000002 19.584299999999995 11.104200000000002
Si 925 9.113580000000002 21.185100000000002 12.356199999999998
O 3 6.355460000000001 18.8347 12.639700000000001
O 115 5.24052 18.653500000000005 10.382299999999997
O 141 8.09668 20.252 11.497899999999998
O 141 8.09668 20.252 11.497899999999998
O 196 10.342499999999998 0.6403000000000034 12.933199999999996
O 239 8.94352 0.8918999999999997 11.182600000000004
O 262 8.23078 21.249 13.743800000000004
O 336 10.3171 20.011300000000002 12.530200000000004
O 609 5.64978 20.9164 11.038900000000002
O 632 7.159200000000002 19.436000000000003 9.470479999999998
