6
Lattice="21.7645 0.0 0.0 0.0 21.7645 0.0 0.0 0.0 21.7645"
Si 984 18.657999999999998 12.108 16.526800000000005
O 31 19.828799999999998 11.284000000000002 17.319399999999998
O 255 17.709299999999995 12.166700000000002 15.1095
O 363 18.463000000000005 13.774600000000003 16.818099999999998
O 530 19.863200000000003 12.604499999999998 15.205400000000001
O 626 17.421000000000003 11.662000000000003 17.5986
