6
Lattice="21.7645 0.0 0.0 0.0 21.7645 0.0 0.0 0.0 21.7645"
Si 705 5.861740000000001 15.461499999999997 10.0886
O 74 5.09131 16.302199999999996 11.336499999999997
O 301 6.009530000000002 14.1463 8.884319999999999
O 324 7.132249999999999 16.395800000000005 9.91826
O 422 6.4279399999999995 14.101600000000001 11.343299999999996
O 425 4.660619999999998 15.933899999999998 8.980979999999999
