18
Lattice="21.7645 0.0 0.0 0.0 21.7645 0.0 0.0 0.0 21.7645"
Si 778 3.2892599999999987 6.92972 2.9388199999999998
Si 796 5.181570000000001 8.640170000000001 3.465060000000001
Si 841 5.303319999999999 10.490599999999997 6.09374
O 97 4.22458 7.3203700000000005 4.319759999999999
O 97 4.22458 7.3203700000000005 4.319759999999999
O 148 3.750209999999999 8.599630000000001 2.6377799999999993
O 148 3.750209999999999 8.599630000000001 2.6377799999999993
O 276 6.522829999999999 9.735209999999999 6.98996
O 293 2.56747 6.850819999999999 1.3911000000000016
O 312 6.35707 7.549420000000001 3.087979999999998
O 392 5.753720000000001 9.62436 2.1707
O 393 1.92746 6.443929999999998 3.7680299999999995
O 430 5.185929999999999 11.834 7.476949999999999
O 451 4.98808 11.784000000000002 5.232710000000001
O 590 4.02853 5.466760000000001 2.8338500000000018
O 603 4.019970000000001 9.589369999999999 6.581779999999998
O 637 5.62548 9.560460000000003 4.71557
O 637 5.62548 9.560460000000003 4.71557
