18
Lattice="21.7645 0.0 0.0 0.0 21.7645 0.0 0.0 0.0 21.7645"
Si 688 11.224599999999999 12.338400000000004 8.042179999999998
Si 723 8.862550000000002 11.745500000000003 7.375260000000001
Si 872 13.728999999999996 11.568999999999999 9.73386
O 101 12.1705 11.462999999999997 9.05678
O 101 12.1705 11.462999999999997 9.05678
O 154 14.858299999999996 10.903900000000004 11.045199999999998
O 188 9.98479 12.8479 6.750540000000001
O 188 9.98479 12.8479 6.750540000000001
O 194 7.6299600000000005 12.235400000000002 8.203390000000002
O 198 12.0121 11.613400000000002 6.67942
O 340 14.311199999999996 10.376999999999999 8.690650000000002
O 454 9.4225 10.276700000000002 7.60689
O 462 9.86617 12.076899999999998 8.95071
O 462 9.86617 12.076899999999998 8.95071
O 494 11.709399999999999 13.855100000000004 8.27732
O 524 12.846599999999999 12.407099999999996 11.077499999999997
O 537 14.449299999999997 12.883199999999999 9.122319999999998
O 563 8.20756 11.550900000000002 5.82311
