6
Lattice="21.7645 0.0 0.0 0.0 21.7645 0.0 0.0 0.0 21.7645"
Si 805 5.735389999999999 3.0120900000000006 18.514599999999998
O 294 4.475370000000002 2.054179999999999 18.222800000000003
O 339 6.794730000000001 2.0546700000000016 17.655799999999996
O 359 5.937740000000002 4.317980000000002 17.4171
O 555 4.56653 4.094609999999999 19.4327
O 571 6.711839999999999 2.9773299999999985 19.7957
