12
Lattice="21.7645 0.0 0.0 0.0 21.7645 0.0 0.0 0.0 21.7645"
Si 724 18.565 8.30084 1.014000000000003
Si 931 18.1949 5.64152 1.2575999999999965
O 38 17.4113 7.108170000000001 0.6775999999999982
O 38 17.4113 7.108170000000001 0.6775999999999982
O 132 19.2371 8.84928 21.391900000000003
O 149 19.1009 4.332650000000001 2.0390300000000003
O 159 19.551200000000005 6.661570000000001 1.2209999999999965
O 159 19.551200000000005 6.661570000000001 1.2209999999999965
O 177 17.578600000000005 4.747309999999999 0.06499999999999773
O 182 18.9365 8.605819999999998 2.5741000000000014
O 234 17.2762 9.413050000000002 1.1285999999999987
O 598 17.2996 5.5710000000000015 2.6025899999999993
