6
Lattice="21.7645 0.0 0.0 0.0 21.7645 0.0 0.0 0.0 21.7645"
Si 984 18.653699999999997 12.1354 16.407700000000002
O 31 19.8676 11.3597 17.249400000000005
O 255 17.6962 12.104699999999998 15.053099999999997
O 363 18.499800000000004 13.795600000000004 16.6846
O 530 19.864900000000002 12.708299999999998 15.165099999999999
O 626 17.4592 11.619600000000002 17.5635
