12
Lattice="21.7645 0.0 0.0 0.0 21.7645 0.0 0.0 0.0 21.7645"
Si 727 2.354230000000001 14.680299999999999 4.565110000000001
Si 743 2.0449899999999985 12.157300000000003 5.306529999999999
O 20 2.94933 11.904900000000001 6.73648
O 75 3.73395 15.080200000000001 3.760860000000001
O 127 1.3665999999999983 15.246199999999998 3.3441399999999994
O 267 2.6100700000000003 11.5335 3.890699999999999
O 290 0.9778999999999982 10.994699999999998 5.578970000000002
O 338 2.235610000000001 15.775099999999998 5.83231
O 565 0.9887000000000015 13.3659 4.853249999999999
O 565 0.9887000000000015 13.3659 4.853249999999999
O 667 3.2422299999999993 13.438100000000002 5.305879999999998
O 667 3.2422299999999993 13.438100000000002 5.305879999999998
