6
Lattice="21.7645 0.0 0.0 0.0 21.7645 0.0 0.0 0.0 21.7645"
Si 809 16.136 18.4954 13.2396
O 178 17.416099999999997 18.301200000000005 12.0149
O 244 16.557200000000005 16.997600000000002 13.918900000000004
O 252 16.784900000000004 19.883 13.662400000000002
O 554 14.844800000000003 18.405200000000004 14.346900000000002
O 567 14.8432 18.828799999999998 12.161600000000004
