24
Lattice="21.7645 0.0 0.0 0.0 21.7645 0.0 0.0 0.0 21.7645"
Si 690 16.306 11.623100000000004 20.6606
Si 724 18.6208 8.38794 0.9425000000000026
Si 848 18.8158 9.6526 20.086700000000004
Si 931 18.4046 5.57987 1.3254999999999981
O 38 17.391500000000004 7.344660000000001 0.746699999999997
O 38 17.391500000000004 7.344660000000001 0.746699999999997
O 70 17.7206 8.391920000000002 19.7246
O 132 19.353400000000004 8.913500000000003 21.4124
O 132 19.353400000000004 8.913500000000003 21.4124
O 149 19.376500000000004 4.46951 2.0937300000000008
O 159 19.5414 6.597860000000001 0.8577000000000012
O 159 19.5414 6.597860000000001 0.8577000000000012
O 177 17.7045 4.650760000000002 0.2745999999999995
O 182 19.1471 8.27385 2.493400000000001
O 217 20.1165 11.185399999999998 20.161200000000004
O 234 17.5592 9.641670000000001 1.2841000000000022
O 348 15.249599999999997 10.572300000000002 19.8961
O 367 17.7407 10.809300000000004 20.479499999999998
O 367 17.7407 10.809300000000004 20.479499999999998
O 394 19.7645 9.333769999999998 18.7289
O 432 16.121199999999998 12.836499999999997 19.395300000000002
O 496 16.719999999999995 13.057500000000001 21.594400000000004
O 568 15.6497 11.165299999999998 0.43299999999999983
O 598 17.4909 5.661670000000001 2.63898
