12
Lattice="21.7645 0.0 0.0 0.0 21.7645 0.0 0.0 0.0 21.7645"
Si 727 2.086169999999999 14.623900000000003 4.498380000000001
Si 743 1.9090999999999987 12.1983 5.260819999999999
O 20 2.7624999999999993 11.835899999999999 6.60793
O 75 3.431639999999998 15.0992 3.5899099999999997
O 127 1.1429999999999936 15.3488 3.33314
O 267 2.4669099999999986 11.517 3.913050000000002
O 290 0.7280999999999977 11.026700000000002 5.52187
O 338 2.0082699999999996 15.8047 5.676500000000001
O 565 0.8387999999999991 13.398900000000001 4.774989999999999
O 565 0.8387999999999991 13.398900000000001 4.774989999999999
O 667 3.0969000000000015 13.5232 5.27243
O 667 3.0969000000000015 13.5232 5.27243
