18
Lattice="21.7645 0.0 0.0 0.0 21.7645 0.0 0.0 0.0 21.7645"
Si 811 1.045899999999996 6.580189999999998 9.37492
Si 974 0.018799999999998818 6.051939999999998 7.10502
Si 997 19.720200000000002 6.658989999999999 8.68703
O 16 0.06790000000000163 6.701219999999999 5.699360000000002
O 40 21.344999999999995 6.884550000000001 8.52337
O 40 21.344999999999995 6.884550000000001 8.52337
O 40 21.344999999999995 6.884550000000001 8.52337
O 206 18.8541 5.289480000000001 9.15936
O 269 0.734099999999998 7.983439999999998 10.2668
O 341 0.6075999999999979 5.03792 9.78239
O 401 1.550699999999999 6.40136 7.740179999999999
O 401 1.550699999999999 6.40136 7.740179999999999
O 419 19.894100000000005 7.25235 10.228199999999998
O 560 20.0594 5.684370000000001 7.21556
O 560 20.0594 5.684370000000001 7.21556
O 561 18.8411 7.830400000000001 7.98967
O 576 2.700420000000001 6.325990000000001 9.67615
O 604 0.5018999999999991 4.498100000000001 7.068850000000001
