6
Lattice="21.7645 0.0 0.0 0.0 21.7645 0.0 0.0 0.0 21.7645"
Si 887 4.293119999999998 0.1822999999999979 7.895720000000001
O 4 2.7881600000000013 0.8000999999999934 8.179930000000002
O 36 4.758929999999999 1.0046000000000035 9.381719999999998
O 157 5.80611 0.9601999999999933 7.18459
O 383 4.68535 20.464300000000005 8.54822
O 448 3.8818899999999985 21.373900000000003 6.380189999999999
