12
Lattice="21.7645 0.0 0.0 0.0 21.7645 0.0 0.0 0.0 21.7645"
Si 885 6.79017 19.4973 11.071200000000001
Si 925 9.35117 21.1238 12.258500000000002
O 3 6.4709 18.667799999999996 12.517
O 115 5.3544599999999996 18.583300000000005 10.3295
O 141 8.272020000000001 20.118400000000005 11.490800000000004
O 141 8.272020000000001 20.118400000000005 11.490800000000004
O 196 10.648799999999998 0.6506999999999934 12.9374
O 239 9.02683 0.7303999999999959 11.303700000000003
O 262 8.561890000000002 21.2525 13.6512
O 336 10.5643 20.0975 12.113299999999999
O 609 5.844260000000002 20.803700000000003 11.029
O 632 7.30434 19.298 9.507470000000001
