12
Lattice="21.3314 0.0 0.0 0.0 21.3314 0.0 0.0 0.0 21.3314"
Si 705 14.9027 16.0832 5.993379999999998
Si 709 13.780400000000004 18.0784 4.885210000000001
O 74 14.035599999999999 15.9941 7.299620000000001
O 115 12.6095 18.0311 6.319240000000001
O 286 15.017 17.809100000000004 3.7107799999999997
O 307 13.5063 16.360900000000004 4.8903
O 307 13.5063 16.360900000000004 4.8903
O 324 16.476699999999997 16.2422 6.1295
O 383 12.752399999999998 18.9564 3.81616
O 425 14.872000000000003 14.542999999999996 5.35643
O 632 14.921400000000002 17.9057 6.13598
O 632 14.921400000000002 17.9057 6.13598
