12
Lattice="22.5427 0.0 0.0 0.0 22.5427 0.0 0.0 0.0 22.5427"
Si 736 17.951599999999996 15.627500000000001 10.612599999999997
Si 765 20.1557 16.835599999999996 11.2422
O 19 20.5048 17.351499999999998 12.945000000000004
O 322 20.8813 18.074899999999996 10.4588
O 373 18.6716 16.468699999999995 12.033600000000003
O 373 18.6716 16.468699999999995 12.033600000000003
O 476 16.853000000000005 16.995500000000003 10.478100000000001
O 579 21.300099999999997 15.670799999999996 11.423100000000002
O 588 19.3614 16.069299999999995 9.951150000000002
O 588 19.3614 16.069299999999995 9.951150000000002
O 640 17.142300000000002 14.992799999999999 9.30857
O 644 18.199700000000004 14.1416 11.313100000000002
