12
Lattice="22.5427 0.0 0.0 0.0 22.5427 0.0 0.0 0.0 22.5427"
Si 680 6.38401 2.7673500000000004 5.650510000000001
Si 766 7.264240000000001 0.9641999999999982 7.4894500000000015
O 118 7.58933 2.71838 7.0558900000000015
O 118 7.58933 2.71838 7.0558900000000015
O 142 5.17342 2.579370000000001 4.434650000000001
O 327 7.686429999999998 1.3530599999999993 9.011689999999998
O 339 5.35425 3.589600000000001 6.63814
O 360 7.365390000000001 3.5496100000000013 4.649329999999999
O 428 6.264689999999998 22.3383 7.98809
O 518 8.70204 0.4778999999999982 6.748729999999998
O 634 6.358640000000001 1.1206999999999994 5.995650000000001
O 634 6.358640000000001 1.1206999999999994 5.995650000000001
