12
Lattice="22.5427 0.0 0.0 0.0 22.5427 0.0 0.0 0.0 22.5427"
Si 869 14.620299999999997 16.459100000000003 1.6135100000000016
Si 949 16.627999999999997 15.331700000000001 2.6313700000000004
O 60 14.7131 17.857399999999995 0.5688999999999993
O 85 18.0485 16.0016 3.132159999999999
O 202 15.415699999999998 16.3736 3.2335299999999982
O 202 15.415699999999998 16.3736 3.2335299999999982
O 255 16.2507 14.267900000000001 3.936250000000001
O 260 16.2317 16.195199999999996 1.2183999999999955
O 260 16.2317 16.195199999999996 1.2183999999999955
O 530 17.162699999999997 14.0658 1.7845699999999987
O 543 13.1771 16.974299999999996 2.2065899999999985
O 625 14.0654 14.960800000000003 1.2689999999999984
