6
Lattice="22.5427 0.0 0.0 0.0 22.5427 0.0 0.0 0.0 22.5427"
Si 872 12.017300000000002 13.066799999999997 21.291999999999998
O 101 10.9646 13.0048 19.9153
O 154 12.679300000000001 12.720899999999997 0.46589999999999776
O 340 12.6726 11.6568 20.815099999999997
O 524 10.712999999999997 13.650699999999997 22.109999999999996
O 537 13.0915 14.203500000000002 20.8186
