48
Lattice="22.5427 0.0 0.0 0.0 22.5427 0.0 0.0 0.0 22.5427"
Si 704 2.98208 17.3103 18.5671
Si 707 20.3387 18.310100000000002 1.302579999999999
Si 827 4.705929999999999 17.2221 16.8775
Si 952 1.0513000000000048 19.233699999999995 17.0817
Si 991 5.005120000000002 19.6313 18.2126
Si 996 20.4342 18.9997 20.690099999999997
Si 1001 21.832800000000002 20.0258 18.752599999999997
Si 1004 22.541499999999996 17.981999999999996 22.372200000000003
O 21 1.7625899999999994 20.3338 16.000399999999996
O 24 4.568770000000001 18.0714 18.3102
O 24 4.568770000000001 18.0714 18.3102
O 24 4.568770000000001 18.0714 18.3102
O 55 3.6311099999999996 16.0658 17.6666
O 55 3.6311099999999996 16.0658 17.6666
O 61 0.9344000000000037 19.823599999999995 18.7683
O 61 0.9344000000000037 19.823599999999995 18.7683
O 93 20.371400000000005 17.2848 2.684329999999999
O 96 5.494980000000002 18.6647 16.222400000000004
O 96 5.494980000000002 18.6647 16.222400000000004
O 113 1.6524600000000014 16.3727 18.8088
O 201 20.984599999999997 18.4096 22.1465
O 201 20.984599999999997 18.4096 22.1465
O 201 20.984599999999997 18.4096 22.1465
O 204 19.4609 19.547099999999997 1.7742000000000004
O 233 19.229899999999997 20.0095 21.0016
O 246 20.6097 18.8509 18.8034
O 246 20.6097 18.8509 18.8034
O 248 6.620160000000002 19.904800000000005 18.2762
O 254 19.572799999999997 17.458899999999996 20.3939
O 286 4.679359999999999 20.156699999999997 19.7711
O 298 3.988789999999998 20.5508 17.241700000000005
O 307 1.3544599999999996 18.8128 0.1595000000000013
O 313 0.23389999999999844 17.401800000000005 20.777600000000003
O 338 0.20110000000000383 17.7293 16.7332
O 358 2.429970000000001 18.273999999999997 17.342899999999997
O 358 2.429970000000001 18.273999999999997 17.342899999999997
O 389 21.702499999999997 20.025900000000004 20.4273
O 389 21.702499999999997 20.025900000000004 20.4273
O 425 2.9513700000000007 18.022900000000003 20.0695
O 493 19.213599999999996 17.266299999999998 0.5533000000000001
O 497 21.1296 21.5431 18.6427
O 519 22.0926 20.016100000000005 16.981599999999997
O 519 22.0926 20.016100000000005 16.981599999999997
O 532 4.2395 16.820800000000002 15.394900000000003
O 548 21.7974 19.021600000000003 1.5933700000000002
O 548 21.7974 19.021600000000003 1.5933700000000002
O 557 0.11149999999999949 16.613399999999995 0.7298000000000044
O 645 6.166 16.456600000000005 17.159500000000005
