48
Lattice="22.5427 0.0 0.0 0.0 22.5427 0.0 0.0 0.0 22.5427"
Si 680 6.371169999999999 2.8420799999999993 5.820699999999999
Si 681 11.8158 4.931699999999999 1.5177200000000006
Si 766 7.440049999999999 1.0745000000000005 7.44078
Si 788 9.259820000000001 5.460840000000001 1.8232500000000016
Si 955 11.069700000000001 5.533069999999999 4.24493
Si 960 6.783089999999998 4.059830000000002 3.526119999999999
Si 968 14.167100000000001 6.21386 2.180299999999999
Si 990 8.5032 3.34591 8.41318
O 9 8.76369 4.843029999999999 7.636030000000002
O 68 9.777750000000001 5.297409999999999 5.230139999999999
O 118 7.34487 2.717269999999999 7.302669999999999
O 118 7.34487 2.717269999999999 7.302669999999999
O 118 7.34487 2.717269999999999 7.302669999999999
O 142 5.333269999999999 2.7652900000000002 4.414200000000001
O 142 5.333269999999999 2.7652900000000002 4.414200000000001
O 168 14.0887 7.720949999999998 1.5241700000000016
O 175 14.729699999999998 6.44661 3.718070000000001
O 199 12.229800000000001 3.3688800000000008 1.8142500000000013
O 203 15.5896 5.665769999999998 1.53857
O 230 10.536600000000004 5.014099999999999 2.789200000000001
O 230 10.536600000000004 5.014099999999999 2.789200000000001
O 230 10.536600000000004 5.014099999999999 2.789200000000001
O 235 13.206399999999999 5.205269999999999 0.502600000000001
O 235 13.206399999999999 5.205269999999999 0.502600000000001
O 304 8.6035 4.3291900000000005 0.7363
O 311 8.085280000000001 4.98264 2.969739999999998
O 311 8.085280000000001 4.98264 2.969739999999998
O 327 8.156499999999998 1.2809600000000003 8.95372
O 327 8.156499999999998 1.2809600000000003 8.95372
O 339 5.290099999999999 3.86759 6.481190000000002
O 360 7.469170000000002 3.4421999999999997 4.85211
O 360 7.469170000000002 3.4421999999999997 4.85211
O 387 9.20234 7.074189999999998 2.0265999999999984
O 428 6.568470000000001 22.460199999999997 8.07403
O 433 10.0076 2.9138400000000004 8.66377
O 458 6.564309999999999 3.301829999999999 2.0877599999999994
O 490 10.6388 5.727550000000001 0.6629000000000005
O 490 10.6388 5.727550000000001 0.6629000000000005
O 491 11.310799999999997 7.090920000000001 4.475629999999999
O 518 8.784760000000002 0.782900000000005 6.583539999999999
O 529 12.6416 5.898599999999998 2.6490299999999998
O 529 12.6416 5.898599999999998 2.6490299999999998
O 529 12.6416 5.898599999999998 2.6490299999999998
O 549 12.2161 4.5959 5.043800000000001
O 575 5.59254 5.193110000000001 3.5614799999999995
O 621 7.612770000000001 3.7389399999999995 9.682330000000004
O 634 6.287990000000001 1.1747999999999976 6.097519999999999
O 634 6.287990000000001 1.1747999999999976 6.097519999999999
