6
Lattice="22.5427 0.0 0.0 0.0 22.5427 0.0 0.0 0.0 22.5427"
Si 1007 1.4415000000000013 9.36348 1.6023999999999994
O 111 22.418699999999998 9.30396 2.105219999999999
O 218 2.1758300000000013 9.19398 3.105599999999999
O 526 1.6624499999999998 11.490300000000001 2.1385700000000014
O 631 1.8582 7.80106 1.2853600000000007
O 653 1.6100700000000003 9.934300000000004 0.08189999999999742
