6
Lattice="22.5427 0.0 0.0 0.0 22.5427 0.0 0.0 0.0 22.5427"
Si 707 20.569100000000002 18.326800000000002 1.3754999999999988
O 93 20.5078 17.3344 2.680530000000001
O 201 21.3203 18.4654 22.3308
O 204 19.5114 19.585000000000004 1.5282899999999984
O 493 19.397900000000003 17.318300000000004 0.4335000000000022
O 548 21.874 19.2195 2.040510000000001
