6
Lattice="22.5427 0.0 0.0 0.0 22.5427 0.0 0.0 0.0 22.5427"
Si 905 6.04036 19.693099999999998 7.431049999999999
O 64 7.60595 19.9958 7.854119999999998
O 247 6.555040000000002 18.8725 5.74417
O 288 5.37641 18.309 8.140699999999999
O 310 5.389189999999999 20.5714 8.92688
O 635 4.85624 20.4528 6.607199999999999
