6
Lattice="22.5427 0.0 0.0 0.0 22.5427 0.0 0.0 0.0 22.5427"
Si 802 20.0153 5.26418 6.995100000000001
O 66 21.088599999999996 6.385929999999998 6.1023
O 413 18.679200000000005 5.31643 5.908100000000001
O 480 19.849299999999996 6.377130000000001 8.190920000000002
O 610 19.239 4.099489999999999 7.964089999999999
O 666 21.1302 4.09421 6.442339999999998
