12
Lattice="22.5427 0.0 0.0 0.0 22.5427 0.0 0.0 0.0 22.5427"
Si 721 10.193700000000003 7.918099999999999 13.008
Si 824 12.654300000000003 8.22325 13.374100000000002
O 90 9.03827 8.215869999999999 14.219400000000004
O 224 12.848600000000001 9.028119999999998 14.9036
O 257 11.305199999999996 7.250260000000001 14.077899999999996
O 257 11.305199999999996 7.250260000000001 14.077899999999996
O 278 11.366600000000002 8.965140000000002 12.532900000000001
O 278 11.366600000000002 8.965140000000002 12.532900000000001
O 385 13.986999999999998 9.050419999999999 12.856599999999997
O 515 8.957449999999998 8.854510000000001 12.060199999999998
O 613 10.094599999999996 6.709889999999998 11.971999999999998
O 623 12.969599999999996 6.964970000000001 12.276799999999998
