6
Lattice="22.5427 0.0 0.0 0.0 22.5427 0.0 0.0 0.0 22.5427"
Si 905 5.789670000000001 19.734800000000003 7.720220000000001
O 64 7.4577300000000015 19.8747 7.965720000000001
O 247 6.434889999999999 18.7642 5.990549999999999
O 288 5.233640000000001 18.3113 8.35415
O 310 5.182660000000002 20.745100000000004 9.015919999999998
O 635 4.635390000000001 20.323000000000004 6.712799999999998
