54
Lattice="22.5427 0.0 0.0 0.0 22.5427 0.0 0.0 0.0 22.5427"
Si 722 2.886219999999998 12.920100000000001 7.73977
Si 778 1.3969699999999996 8.84232 14.768800000000002
Si 781 6.16356 15.349700000000002 10.534499999999998
Si 796 3.6134999999999984 10.342499999999998 15.490800000000004
Si 828 2.0167199999999994 11.09 10.3308
Si 841 3.3551499999999983 12.5042 17.973899999999997
Si 940 6.907360000000001 12.871999999999996 11.503399999999996
Si 963 4.085979999999999 14.238299999999999 9.652960000000004
Si 966 2.9355900000000013 10.9393 12.810100000000002
O 26 5.54383 13.782799999999998 10.768899999999999
O 26 5.54383 13.782799999999998 10.768899999999999
O 26 5.54383 13.782799999999998 10.768899999999999
O 32 7.47287 14.618999999999996 11.216899999999999
O 32 7.47287 14.618999999999996 11.216899999999999
O 35 8.565279999999998 12.549899999999997 11.651999999999997
O 39 6.29298 12.671699999999998 13.0322
O 54 2.1220299999999988 12.287000000000003 13.459399999999999
O 97 2.492609999999999 9.12348 16.242100000000004
O 97 2.492609999999999 9.12348 16.242100000000004
O 145 6.72147 11.563799999999997 10.587500000000002
O 146 4.32451 10.023999999999997 12.610299999999999
O 148 2.4469400000000014 10.0551 14.189600000000002
O 148 2.4469400000000014 10.0551 14.189600000000002
O 148 2.4469400000000014 10.0551 14.189600000000002
O 158 5.379909999999999 16.0722 11.764300000000002
O 220 4.369879999999998 13.086299999999998 8.52691
O 220 4.369879999999998 13.086299999999998 8.52691
O 276 4.339459999999999 11.6705 19.148999999999997
O 284 7.187429999999999 16.680599999999995 9.824560000000002
O 293 0.5504000000000033 8.54129 13.293699999999998
O 308 3.12416 11.832599999999996 11.269200000000001
O 308 3.12416 11.832599999999996 11.269200000000001
O 312 4.720970000000001 9.252590000000001 15.022500000000004
O 329 1.6827299999999994 10.235499999999998 11.886999999999997
O 329 1.6827299999999994 10.235499999999998 11.886999999999997
O 345 0.37480000000000047 11.4543 10.172900000000002
O 356 1.407 13.235200000000003 6.957940000000001
O 392 4.34958 11.606300000000001 14.546499999999998
O 393 0.05810000000000315 9.329 15.598099999999999
O 430 3.161999999999999 13.858999999999998 19.031000000000002
O 451 3.2275899999999993 13.559000000000001 16.716800000000003
O 467 2.3420699999999997 11.781000000000002 8.795460000000002
O 467 2.3420699999999997 11.781000000000002 8.795460000000002
O 477 2.420349999999999 9.521870000000003 9.763929999999998
O 483 3.7349700000000006 12.844899999999999 6.303560000000001
O 505 2.6354499999999987 14.521600000000003 8.69416
O 505 2.6354499999999987 14.521600000000003 8.69416
O 590 1.7650100000000002 7.206240000000001 14.991200000000003
O 596 5.13006 15.447500000000002 9.270590000000002
O 596 5.13006 15.447500000000002 9.270590000000002
O 601 3.2809799999999996 14.7182 11.008599999999998
O 603 1.971260000000001 11.630100000000002 18.163499999999996
O 637 4.06363 11.0532 16.9412
O 637 4.06363 11.0532 16.9412
