6
Lattice="22.5427 0.0 0.0 0.0 22.5427 0.0 0.0 0.0 22.5427"
Si 905 6.060870000000001 19.6317 7.54044
O 64 7.55641 19.845499999999998 7.948530000000002
O 247 6.558630000000001 18.7565 5.8966899999999995
O 288 5.3587099999999985 18.2893 8.244589999999999
O 310 5.45459 20.5442 8.99344
O 635 4.8993 20.489 6.686
