6
Lattice="22.5427 0.0 0.0 0.0 22.5427 0.0 0.0 0.0 22.5427"
Si 905 5.88025 19.7013 7.481930000000002
O 64 7.50723 20.008599999999998 7.8593399999999995
O 247 6.356950000000001 18.9408 5.9641899999999985
O 288 5.245729999999998 18.359800000000003 8.216370000000001
O 310 5.24053 20.6442 8.96838
O 635 4.7273299999999985 20.4856 6.692160000000001
