36
Lattice="22.5427 0.0 0.0 0.0 22.5427 0.0 0.0 0.0 22.5427"
Si 714 12.827700000000004 19.8695 12.737399999999997
Si 831 16.880300000000002 17.3993 15.056300000000004
Si 855 15.253600000000002 19.4764 15.008800000000004
Si 891 10.468900000000001 20.4943 13.080400000000001
Si 892 14.485699999999998 17.757299999999997 13.253399999999996
Si 983 18.239100000000004 19.875899999999998 15.204199999999997
O 2 15.878899999999998 20.700799999999997 13.954699999999999
O 48 13.5476 18.576599999999996 11.982800000000001
O 48 13.5476 18.576599999999996 11.982800000000001
O 67 13.612199999999998 21.328 12.7319
O 112 14.736799999999999 20.215799999999998 16.3297
O 116 16.9267 15.835599999999996 14.296400000000002
O 167 18.405399999999997 17.723200000000002 14.4391
O 167 18.405399999999997 17.723200000000002 14.4391
O 181 11.583700000000004 20.1157 11.736
O 181 11.583700000000004 20.1157 11.736
O 212 11.670199999999998 19.577 13.8993
O 212 11.670199999999998 19.577 13.8993
O 350 18.694299999999995 20.121999999999996 13.645999999999997
O 351 13.966800000000003 19.2921 13.992900000000002
O 351 13.966800000000003 19.2921 13.992900000000002
O 351 13.966800000000003 19.2921 13.992900000000002
O 439 15.2137 17.637799999999995 14.7649
O 439 15.2137 17.637799999999995 14.7649
O 439 15.2137 17.637799999999995 14.7649
O 455 14.096999999999998 16.2972 12.883999999999997
O 464 17.819600000000005 21.2659 15.967400000000001
O 471 19.7465 19.683199999999996 15.892
O 481 9.57988 20.888100000000005 14.370500000000003
O 507 9.246579999999998 19.705499999999997 12.348600000000001
O 542 16.0459 18.135 12.636199999999999
O 544 16.814599999999995 19.0913 15.453100000000003
O 544 16.814599999999995 19.0913 15.453100000000003
O 544 16.814599999999995 19.0913 15.453100000000003
O 570 17.032499999999995 16.736900000000002 16.5498
O 619 10.9083 22.135699999999996 12.779799999999998
