6
Lattice="22.5427 0.0 0.0 0.0 22.5427 0.0 0.0 0.0 22.5427"
Si 802 20.1975 5.26735 7.05133
O 66 21.3792 6.178100000000001 6.015560000000001
O 413 19.090699999999995 5.40541 5.8694500000000005
O 480 20.0772 6.410969999999999 8.15786
O 610 19.289600000000004 4.155190000000001 7.964850000000002
O 666 21.421000000000003 4.102599999999999 6.913820000000001
