6
Lattice="22.5427 0.0 0.0 0.0 22.5427 0.0 0.0 0.0 22.5427"
Si 699 1.2816200000000002 16.8972 3.9726099999999995
O 268 1.4317600000000006 18.490599999999997 3.747980000000002
O 368 2.1055400000000013 16.512600000000003 2.46856
O 375 0.13700000000000045 16.888500000000004 5.405339999999999
O 450 0.12379999999999569 15.721700000000002 3.545020000000001
O 636 2.5081500000000005 16.397299999999998 4.9127800000000015
