60
Lattice="22.5427 0.0 0.0 0.0 22.5427 0.0 0.0 0.0 22.5427"
Si 722 3.0680699999999987 12.889999999999997 7.75432
Si 778 1.62087 8.78174 14.842600000000001
Si 781 6.247890000000002 15.3614 10.554600000000004
Si 796 3.806149999999999 10.327099999999998 15.423600000000004
Si 828 2.1374299999999984 10.963199999999997 10.259399999999996
Si 841 3.3902900000000002 12.3935 17.7953
Si 940 6.991589999999999 12.924400000000002 11.346999999999998
Si 948 5.928380000000001 11.345099999999999 8.97006
Si 963 4.26717 13.9241 9.83051
Si 966 3.019079999999999 10.921699999999998 12.728800000000003
O 26 5.54082 13.696099999999998 10.9479
O 26 5.54082 13.696099999999998 10.9479
O 26 5.54082 13.696099999999998 10.9479
O 32 7.538239999999998 14.543000000000003 11.207599999999996
O 32 7.538239999999998 14.543000000000003 11.207599999999996
O 35 8.739259999999998 12.501099999999997 11.5273
O 39 6.4773700000000005 12.585899999999999 12.891699999999997
O 52 6.717829999999999 12.243300000000001 7.687149999999999
O 54 2.172789999999999 12.207699999999999 13.407900000000001
O 97 2.683530000000001 9.232780000000002 16.2948
O 97 2.683530000000001 9.232780000000002 16.2948
O 145 6.792770000000001 11.7865 10.229200000000002
O 145 6.792770000000001 11.7865 10.229200000000002
O 146 4.2941 9.8646 12.48
O 148 2.679919999999999 9.99898 14.187499999999996
O 148 2.679919999999999 9.99898 14.187499999999996
O 148 2.679919999999999 9.99898 14.187499999999996
O 158 5.4674499999999995 16.028900000000004 11.7944
O 220 4.5927299999999995 12.6416 8.86391
O 220 4.5927299999999995 12.6416 8.86391
O 220 4.5927299999999995 12.6416 8.86391
O 276 4.39855 11.647000000000002 19.021600000000003
O 284 7.3292 16.5545 9.737530000000003
O 293 0.7787999999999968 8.402170000000002 13.383
O 308 3.1741899999999994 11.782500000000002 11.254299999999997
O 308 3.1741899999999994 11.782500000000002 11.254299999999997
O 312 4.915199999999999 9.22955 14.998699999999996
O 329 1.862960000000001 10.0977 11.837599999999998
O 329 1.862960000000001 10.0977 11.837599999999998
O 345 0.49340000000000117 11.2839 10.106100000000001
O 356 1.6393400000000007 13.142599999999998 6.842590000000001
O 392 4.479520000000001 11.6172 14.3811
O 393 0.2796999999999983 9.432010000000002 15.529500000000002
O 410 4.902609999999999 10.336299999999998 9.712129999999998
O 430 3.2914400000000015 13.821499999999997 18.7531
O 451 3.205490000000001 13.355299999999996 16.549900000000004
O 467 2.4156499999999994 11.7422 8.75968
O 467 2.4156499999999994 11.7422 8.75968
O 477 2.4657599999999995 9.465929999999997 9.706839999999996
O 483 4.096260000000001 12.7514 6.488710000000001
O 505 2.9294200000000004 14.326199999999996 8.662949999999999
O 505 2.9294200000000004 14.326199999999996 8.662949999999999
O 509 6.561869999999999 9.948519999999998 8.14885
O 590 2.116319999999998 7.274699999999999 15.0166
O 596 5.268660000000001 15.165400000000002 9.28583
O 596 5.268660000000001 15.165400000000002 9.28583
O 601 3.3472299999999997 14.5185 11.025699999999997
O 603 2.07536 11.470400000000001 18.0425
O 637 4.2331199999999995 10.9755 16.8745
O 637 4.2331199999999995 10.9755 16.8745
