6
Lattice="22.5427 0.0 0.0 0.0 22.5427 0.0 0.0 0.0 22.5427"
Si 845 20.1326 1.5346499999999992 20.547
O 398 20.953600000000005 1.5883900000000004 19.1084
O 517 19.437 0.06769999999999499 20.4385
O 586 18.839300000000005 2.5076099999999997 19.636
O 624 21.5037 0.9956000000000031 21.358900000000002
O 641 19.449899999999996 2.300329999999999 21.785
