36
Lattice="22.5427 0.0 0.0 0.0 22.5427 0.0 0.0 0.0 22.5427"
Si 752 18.1559 0.5061999999999998 8.29158
Si 772 20.341000000000005 1.0146000000000015 9.556349999999998
Si 799 1.7375900000000009 2.0879499999999993 12.182799999999997
Si 947 16.2452 20.796900000000004 9.445440000000001
Si 970 0.7209999999999965 2.0398099999999992 9.595719999999996
Si 988 2.9342700000000015 0.7165000000000035 9.295950000000001
O 29 0.2482000000000042 2.2932099999999984 11.365599999999997
O 29 0.2482000000000042 2.2932099999999984 11.365599999999997
O 78 17.677900000000005 20.002999999999997 8.988330000000001
O 83 16.3479 22.156900000000004 10.503800000000002
O 88 16.0136 19.6604 10.662499999999998
O 223 21.984999999999996 1.2782799999999988 9.11835
O 223 21.984999999999996 1.2782799999999988 9.11835
O 265 17.477500000000003 1.9349799999999995 7.812259999999998
O 292 20.312899999999996 2.041599999999999 10.809900000000003
O 364 20.9055 21.9716 9.885389999999997
O 427 1.2042999999999964 2.566130000000001 13.6771
O 438 2.1967299999999987 1.7811500000000002 10.452299999999997
O 438 2.1967299999999987 1.7811500000000002 10.452299999999997
O 438 2.1967299999999987 1.7811500000000002 10.452299999999997
O 468 3.226230000000001 22.0581 8.190180000000002
O 484 0.3813000000000031 3.624579999999998 9.28427
O 487 18.552400000000002 0.6415000000000006 9.826049999999999
O 487 18.552400000000002 0.6415000000000006 9.826049999999999
O 513 19.7233 1.5369099999999989 8.15295
O 513 19.7233 1.5369099999999989 8.15295
O 520 3.57555 22.2426 10.468599999999999
O 528 1.9791600000000003 0.46180000000000376 12.541
O 536 19.1253 21.753899999999998 7.74333
O 569 16.844999999999995 22.0008 8.065079999999998
O 569 16.844999999999995 22.0008 8.065079999999998
O 654 3.0661799999999992 3.005939999999999 12.312099999999997
O 659 1.7730299999999986 1.5584500000000006 8.304300000000001
O 659 1.7730299999999986 1.5584500000000006 8.304300000000001
O 661 4.382470000000001 1.3747800000000012 9.05248
O 664 14.8552 20.5352 8.72045
