12
Lattice="22.5427 0.0 0.0 0.0 22.5427 0.0 0.0 0.0 22.5427"
Si 721 10.2884 7.748200000000001 12.930199999999996
Si 824 12.837799999999998 8.07036 13.310100000000002
O 90 9.267979999999998 8.040949999999999 14.298300000000001
O 224 12.797700000000003 8.90408 14.767300000000002
O 257 11.5149 6.942609999999998 13.916999999999998
O 257 11.5149 6.942609999999998 13.916999999999998
O 278 11.519699999999997 8.77175 12.456799999999998
O 278 11.519699999999997 8.77175 12.456799999999998
O 385 14.232800000000001 8.81099 12.862999999999996
O 515 9.093399999999999 8.766380000000002 12.163500000000003
O 613 10.112800000000004 6.518699999999999 11.866699999999998
O 623 13.040200000000002 6.808130000000002 12.096900000000002
