6
Lattice="22.5427 0.0 0.0 0.0 22.5427 0.0 0.0 0.0 22.5427"
Si 699 1.2736799999999988 16.7216 4.030179999999998
O 268 1.4767900000000012 18.3573 4.00226
O 368 1.9519400000000005 16.5401 2.472909999999999
O 375 22.5138 16.7707 5.454930000000001
O 450 0.12549999999999528 15.5855 3.6078800000000015
O 636 2.51305 16.2514 4.940819999999999
