302
Lattice="21.0122 0.0 0.0 0.0 21.0122 0.0 0.0 0.0 21.0122"
O 1   14.42860 17.84780 0.50760
O 3   15.81650 19.51270 -0.30870
O 9   15.46070 19.48360 1.94950
O 11  13.41760 20.18310 -0.53570
O 12  14.25190 21.29580 1.33460
O 14  11.25450 21.21260 -0.47980
O 18  13.62020 21.59510 -2.68310
O 19  11.66590 20.20230 -2.59160
O 20  10.40840 19.41700 -4.41440
O 26  12.43470 20.66300 -5.01900
O 28  11.57410 22.59580 -3.62170
O 30  9.15646 19.41080 -1.25960
O 31  7.93654 19.18000 0.53060
O 33  9.08229 21.70810 -0.64290
O 36  9.98063 20.31330 1.42130
O 38  8.09857 19.95280 3.00806
O 39  11.74860 22.11820 1.55440
O 40  10.38250 21.80550 3.56504
O 48  11.38930 23.78879 4.21864
O 52  10.11110 22.17580 6.03848
O 58  9.13647 20.15020 4.99846
O 62  9.11403 24.07919 3.22560
O 63  6.99453 24.37582 2.61655
O 68  9.43609 24.29555 5.56596
O 75  9.16675 26.46091 3.67896
O 76  8.59036 28.26165 2.11765
O 89  6.83756 26.64565 2.59192
O 91  7.47615 28.63429 4.06395
O 92  6.83733 30.11223 2.24726
O 94  7.47976 31.08940 4.37219
O 97  5.28975 28.60251 2.82741
O 99  5.34600 30.40121 4.29734
O 101 6.79533 30.19917 6.57838
O 102 7.29290 30.98071 8.61849
O 106 5.90830 30.64317 10.53560
O 107 8.49585 31.65270 10.68560
O 111 7.74610 30.00120 11.97490
O 114 9.06126 33.34020 12.09840
O 116 10.98090 32.06800 10.65090
O 119 6.60998 32.15730 12.34630
O 123 8.54612 34.12810 9.92210
O 124 10.02680 32.38000 8.57599
O 125 10.88900 34.28240 9.60490
O 128 11.11970 30.12086 8.74826
O 130 10.78610 33.40320 6.29759
O 131 9.53070 34.79140 7.65005
O 132 7.91131 35.21460 6.18431
O 133 8.97586 36.58360 9.19876
O 134 7.09537 35.85530 8.54272
O 138 8.63642 37.37230 6.89658
O 140 9.79039 38.67110 5.42232
O 142 6.85297 38.78950 7.31918
O 147 7.85326 37.09170 4.45099
O 148 9.02162 40.15060 7.25903
O 150 5.98306 37.22860 5.70994
O 154 7.42358 39.45050 5.12680
O 157 5.85415 41.23540 4.23417
O 158 5.01058 39.93720 6.41903
O 159 4.15486 41.92110 5.78658
O 162 4.89694 38.48480 8.29685
O 166 5.86841 40.92190 8.40610
O 169 3.83303 37.40360 6.61859
O 172 2.41005 36.15370 8.36615
O 173 0.39640 37.32800 8.99208
O 174 0.03130 35.33510 7.34576
O 175 3.80715 37.58880 10.46140
O 178 4.21797 38.78090 12.36840
O 179 5.15408 39.90540 10.28310
O 180 5.97049 37.48830 12.09650
O 181 6.52203 38.02680 9.82868
O 182 6.90739 35.67570 10.88230
O 185 6.12090 37.01800 14.17930
O 187 4.36909 38.22180 14.93550
O 188 6.08288 35.65350 16.18450
O 191 4.58963 37.02860 16.90130
O 192 6.52743 34.59420 18.13100
O 193 6.88870 36.79750 18.02650
O 195 8.42565 34.22570 16.42450
O 196 7.39051 32.20870 16.77440
O 200 9.45124 32.17110 15.81440
O 202 10.53600 33.77220 17.57630
O 204 8.93529 35.84600 18.19340
O 205 8.63050 33.59760 18.80260
O 207 9.64119 33.92580 14.27170
O 208 10.30440 36.03480 13.96540
O 212 11.30560 34.24290 12.74660
O 213 8.22862 31.73100 14.09520
O 214 11.64970 35.37190 15.90450
O 216 12.65880 35.37590 13.94150
O 217 13.32650 36.02110 17.34600
O 218 14.61990 34.76240 12.98180
O 219 13.17090 35.94060 11.43250
O 224 14.89800 37.25840 10.26760
O 225 13.84110 35.40590 9.12059
O 226 14.07400 38.07590 12.37660
O 229 15.51530 35.06430 11.03280
O 234 12.54180 38.25740 10.53850
O 238 11.43530 36.66860 9.52378
O 239 13.21030 37.60020 8.53242
O 244 12.50770 40.08650 8.76003
O 247 13.16620 39.28580 6.40932
O 248 15.12660 39.43390 7.87582
O 250 14.29840 41.53110 8.64706
O 252 15.35650 38.52670 5.62454
O 253 13.96000 41.57830 6.34017
O 255 15.82190 43.04990 6.85079
O 256 13.58210 40.09110 4.09787
O 257 12.12890 38.30870 4.74945
O 258 14.43770 43.79000 9.03031
O 259 12.65330 45.25657 9.61519
O 260 13.11990 42.41200 10.60360
O 261 15.95650 42.76490 10.91480
O 264 17.51210 41.38200 11.76240
O 267 16.91300 41.34510 13.92590
O 271 18.91640 39.27960 11.87150
O 272 16.45600 39.15270 13.06930
O 273 15.11000 39.07630 14.86290
O 274 18.33290 39.37550 14.40270
O 277 20.59460 39.08840 13.63040
O 278 19.93650 37.44310 15.34950
O 279 21.99430 38.50220 15.39670
O 284 21.70310 35.86870 14.17400
O 287 22.86150 34.48590 12.81730
O 288 23.43036 36.76060 15.35700
O 290 20.47800 33.97310 14.93820
O 291 21.19120 32.59870 13.31370
O 292 20.90770 31.42920 15.32750
O 299 22.67960 30.13257 15.37080
O 300 24.37032 29.37334 17.13600
O 302 23.97929 27.61820 15.60340
O 307 24.50328 25.38087 14.94090
O 309 25.74387 27.35054 17.31980
O 310 26.48783 26.84052 15.13270
O 311 28.70165 27.21309 14.48680
O 312 28.12740 25.19297 15.79320
O 314 25.90593 25.23945 16.91720
O 318 28.24422 27.70994 16.73100
O 320 26.90121 27.87622 12.51340
O 321 24.85803 26.10643 12.72150
O 325 24.90870 25.82477 10.62820
O 326 23.68863 24.17779 13.05930
O 327 27.21266 25.95326 11.11940
O 328 22.33680 25.41768 11.54930
O 329 25.28385 28.31633 10.68910
O 331 26.22938 26.90553 9.18389
O 335 25.26870 27.62680 7.36295
O 337 26.19068 26.10687 6.13956
O 339 22.94360 27.65445 6.03954
O 340 23.78076 25.62594 6.31870
O 343 22.27460 25.00854 7.75922
O 344 24.73863 27.30276 4.31038
O 348 26.09813 25.23603 3.70806
O 349 24.09636 29.52888 3.22441
O 351 25.29678 26.24775 1.73870
O 357 25.57692 24.00035 1.33300
O 359 27.17375 25.50628 0.44820
O 360 23.05721 24.66432 1.25760
O 361 25.03052 28.98637 0.69670
O 363 26.78512 30.24368 -0.22700
O 364 27.33908 28.33939 0.71460
O 368 25.17586 29.29297 -1.85690
O 369 22.83530 30.19767 1.54630
O 372 25.86313 31.17970 2.01642
O 373 23.11117 32.54080 0.47980
O 374 27.30697 28.42423 -2.21360
O 375 28.05781 25.79197 -3.06170
O 376 23.02472 22.67390 2.38892
O 377 21.21720 23.64459 -0.08760
O 378 21.45910 26.19182 -0.33210
O 381 20.72950 27.15327 -2.28170
O 382 20.26360 28.34586 -0.42220
O 383 22.20990 24.51919 -2.00880
O 385 20.60790 23.66136 -3.15710
O 386 22.60110 22.13280 -2.31680
O 387 22.60970 23.58768 -4.62490
O 393 21.39460 21.68110 -4.55800
O 394 24.10014 20.04770 -2.16060
O 396 25.47186 21.45010 -1.15410
O 398 22.72430 18.27780 -1.40550
O 399 24.31929 18.58800 -4.34990
O 401 21.29880 16.72340 -0.53240
O 404 22.93340 18.73660 1.13420
O 405 22.31010 16.43930 1.50970
O 406 24.79913 19.89050 3.12510
O 409 26.77307 20.00540 1.71510
O 411 25.09583 21.61930 1.43390
O 412 23.02970 21.32440 4.70486
O 413 21.60960 23.43317 3.92850
O 414 27.05695 19.73680 -0.92590
O 416 24.56116 15.33070 1.97640
O 418 18.30950 27.34027 -1.42520
O 419 17.90660 28.88964 0.53680
O 421 18.56240 30.32135 -0.94530
O 423 19.05380 31.21790 1.24640
O 424 17.66510 28.91899 -2.87740
O 425 17.01020 32.32610 0.08610
O 427 16.05720 28.68783 -1.24430
O 429 15.61750 30.99769 -1.49740
O 430 16.19190 26.59103 -2.37910
O 432 13.96990 28.86086 -2.58440
O 434 13.40360 29.69281 -0.41940
O 435 14.52920 31.53480 0.40170
O 438 13.06500 30.92984 -2.61550
O 439 12.90940 29.26527 2.06923
O 440 12.52620 28.35493 3.97436
O 443 14.31450 30.95276 2.79245
O 445 13.69350 26.91859 1.74160
O 447 12.09080 30.75856 4.01914
O 449 10.13500 31.27580 5.22618
O 451 13.19750 32.99750 5.07748
O 453 11.40330 33.38510 3.88170
O 454 9.12649 33.51940 4.55741
O 455 10.69110 33.48860 1.54210
O 457 9.50111 31.97490 2.92394
O 459 14.76960 34.38800 4.48240
O 468 14.71210 31.84600 6.66800
O 469 16.23610 33.56860 5.95901
O 470 16.20250 29.94189 6.79055
O 475 17.97770 30.88699 5.91570
O 476 16.92250 27.89563 7.39571
O 477 18.23170 25.69317 8.11916
O 480 16.95040 25.97180 10.00270
O 488 19.98480 24.33660 6.85534
O 489 19.01620 24.98024 10.57650
O 490 18.36740 26.95886 11.89640
O 495 20.74090 23.93665 12.09670
O 496 19.84270 28.57497 11.76770
O 497 18.19060 28.63284 13.58970
O 498 18.42890 26.55685 14.61470
O 499 17.76970 29.58966 15.60900
O 500 16.66270 30.31419 12.55780
O 502 14.58850 31.18170 11.91140
O 503 16.28110 32.94890 12.50420
O 504 17.82970 34.68870 11.71650
O 505 14.51560 32.50950 14.28790
O 507 12.24870 31.39410 13.27300
O 508 12.09610 29.84002 11.70040
O 512 10.70150 30.21721 14.91050
O 515 12.51520 29.07264 14.33630
O 519 14.01240 28.64969 15.97770
O 520 13.74830 26.93316 14.26520
O 522 12.01790 27.23262 16.00300
O 525 11.92850 29.32260 17.19240
O 526 9.88662 28.11003 15.84790
O 529 8.51681 29.24582 14.23720
O 533 8.25733 29.93979 16.34530
O 538 8.29689 27.50781 12.06460
O 540 7.78790 25.29455 13.05320
O 543 13.81060 25.31838 15.77320
O 547 12.52910 25.54945 12.62750
O 548 12.96210 31.04630 10.00440
O 552 21.05020 30.54926 11.10600
O 554 21.65840 31.82650 9.19383
O 557 22.05320 33.08620 6.90853
O 558 22.82690 31.09130 4.97259
O 562 21.80110 29.06910 4.21736
O 564 19.46630 30.42589 4.02084
O 567 19.15120 32.64950 3.67207
O 568 19.66060 35.09800 2.93035
O 573 18.33600 37.04710 2.81290
O 574 19.58420 38.13140 4.26048
O 577 16.30810 36.50740 4.00080
O 580 17.73920 39.54380 1.39560
O 583 19.12760 40.48100 2.94024
O 584 20.16010 42.06390 1.16820
O 585 16.51330 36.01380 6.20522
O 586 20.09550 38.81410 6.99499
O 588 21.54830 39.93090 8.61174
O 590 19.66780 41.10710 8.15390
O 591 20.69100 43.03340 8.10971
O 593 22.28650 41.92110 9.37068
O 595 23.20985 43.91890 8.39031
O 602 24.68867 42.51520 10.08650
O 603 23.95363 44.56700 10.69280
O 605 25.58926 43.96680 12.48520
O 607 21.46420 39.03310 10.88630
O 613 20.09800 37.12710 11.58340
O 614 21.98440 40.65960 12.71030
O 617 16.20800 27.09445 1.52850
O 619 17.83890 27.85382 2.61065
O 620 18.45630 25.70906 3.05518
O 623 15.35230 33.91930 0.30920
O 625 16.25820 33.22820 -2.13540
O 626 18.48150 34.16980 -3.03900
O 628 18.01980 25.57375 -3.31220
O 632 16.59180 24.31075 -1.22310
O 634 30.23228 23.66357 16.11110
O 637 31.07780 21.41320 15.48610
O 638 29.71040 20.28360 13.69520
O 639 28.53985 19.83000 11.71550
O 640 29.34437 21.92410 11.83440
O 646 25.36487 32.86190 12.34740
O 648 25.24815 31.83500 9.94316
O 650 13.14410 39.77110 13.57360
O 655 11.06620 43.25600 10.07130
O 658 9.86801 41.90150 8.16052
O 659 7.48423 35.63120 20.19530
O 667 9.10467 25.55395 7.33078
O 668 11.29500 23.89807 -1.88700
O 669 15.89060 21.34900 -3.95940
O 670 17.19530 21.35550 -1.98040
O 671 15.79890 23.04088 2.18817
