30
Lattice="21.8375 0.0 0.0 0.0 21.8375 0.0 0.0 0.0 21.8375"
Si 693 8.045110000000001 1.8879200000000012 13.073100000000004
Si 879 10.7119 0.30180000000000007 11.146799999999999
Si 885 4.895949999999999 19.683299999999996 12.000900000000001
Si 925 7.39659 21.2924 13.148699999999998
Si 953 12.499299999999998 1.9354699999999987 9.94332
O 3 4.580269999999999 18.8174 13.4317
O 6 12.290799999999997 0.8885000000000005 11.2712
O 6 12.290799999999997 0.8885000000000005 11.2712
O 49 12.724699999999999 1.6163300000000014 8.32846
O 50 14.163199999999996 1.7698 10.445900000000002
O 115 3.4418700000000015 18.7068 11.236699999999999
O 141 6.359659999999998 20.3555 12.3335
O 141 6.359659999999998 20.3555 12.3335
O 196 8.75434 0.6966000000000037 13.813000000000002
O 196 8.75434 0.6966000000000037 13.813000000000002
O 225 12.487099999999998 3.5557499999999997 10.3174
O 239 7.256489999999999 0.7777999999999992 12.037300000000002
O 239 7.256489999999999 0.7777999999999992 12.037300000000002
O 262 6.620989999999999 21.455 14.592199999999998
O 304 8.396900000000002 3.434619999999999 12.715600000000002
O 336 8.54054 20.131099999999996 13.238500000000002
O 435 10.844500000000004 1.3811000000000035 9.554119999999998
O 435 10.844500000000004 1.3811000000000035 9.554119999999998
O 458 6.68046 2.35069 13.9234
O 475 10.807200000000002 21.151900000000005 12.371900000000004
O 478 9.774819999999998 1.6523000000000003 11.579799999999999
O 478 9.774819999999998 1.6523000000000003 11.579799999999999
O 607 9.483159999999998 21.287 10.422800000000002
O 609 3.94754 21.017699999999998 11.9497
O 632 5.3264700000000005 19.306599999999996 10.374099999999999
