8
Lattice="21.385 0.0 0.0 0.0 21.385 0.0 0.0 0.0 21.385"
Si 684  11.52160 16.38420 8.08139
Si 699  10.86320 17.90660 10.02490
Si 705  10.73310 13.82320 7.79984
Si 707  11.38040 15.37820 10.60210
Si 709  13.89420 15.78650 6.32510
Si 800  12.86170 18.02930 5.43973
Si 980  8.20023 17.22550 8.39073
Si 1001 10.09030 18.22830 3.82257
