135
Lattice="21.385 0.0 0.0 0.0 21.385 0.0 0.0 0.0 21.385"
Si 672  14.36290 1.99184 2.82507
Si 674  16.23960 -0.59780 3.67938
Si 680  11.47230 2.04689 1.49900
Si 687  17.28090 3.69024 2.17495
Si 690  15.06520 3.09561 0.69630
Si 691  13.67730 5.72500 1.57940
Si 698  12.02710 8.37068 0.91950
Si 699  15.89810 7.23216 1.48260
Si 705  14.00030 9.20046 2.96875
Si 706  17.70490 9.24673 0.24470
Si 707  15.60870 9.50695 -1.88870
Si 709  20.27460 8.64927 -0.63600
Si 713  16.28690 10.71620 -4.17300
Si 715  13.48800 11.15410 -3.01250
Si 716  12.87570 12.79980 -5.82280
Si 720  12.28290 9.06612 -4.73630
Si 724  13.53170 6.82946 -6.11650
Si 731  11.37170 6.77787 -3.94220
Si 732  9.73216 10.12360 -5.35790
Si 734  8.40574 7.60012 -4.06270
Si 737  9.90187 12.95420 -4.00510
Si 739  7.88740 14.96820 -3.16500
Si 740  7.63455 13.85260 -6.07560
Si 743  9.14605 16.45220 -6.59220
Si 744  9.86366 17.96620 -9.03630
Si 747  9.33663 19.15960 -4.90150
Si 749  11.45950 18.79300 -3.50930
Si 750  11.53670 21.85650 -2.94340
Si 751  14.49700 18.81370 -3.57410
Si 753  16.12630 16.67120 -3.06460
Si 754  16.90100 19.16400 -4.63870
Si 759  17.68170 21.57730 -5.43280
Si 761  16.89200 20.64200 -7.67810
Si 765  17.01490 22.96540 -8.66360
Si 766  15.84820 20.63550 -10.55370
Si 776  13.27180 21.94030 -10.35650
Si 787  12.16220 25.12292 -9.90660
Si 789  10.01840 24.04830 -8.98520
Si 796  13.06130 27.35814 -11.13050
Si 797  12.74830 28.09137 -8.60120
Si 799  11.65290 29.39468 -12.53513
Si 800  13.45180 31.22892 -12.81539
Si 801  10.52680 32.09500 -12.42931
Si 802  8.72053 33.78110 -12.84164
Si 804  10.73310 35.20820 -13.58516
Si 806  11.38040 36.76320 -10.78290
Si 807  7.18428 34.75760 -14.80351
Si 809  4.14128 34.33020 -15.56475
Si 810  4.47266 32.47110 -17.43406
Si 814  3.66813 35.22560 -12.69973
Si 817  3.83977 38.02450 -13.95071
Si 819  2.75810 36.85400 -10.84300
Si 823  2.79947 39.52170 -12.10423
Si 825  7.56904 31.26970 -17.68776
Si 828  9.52151 33.22010 -19.23909
Si 829  7.81266 30.05998 -15.35002
Si 831  6.29108 28.33404 -16.56445
Si 832  9.16109 30.25213 -19.77210
Si 833  9.39958 28.05613 -21.04750
Si 837  11.18290 29.50694 -17.43543
Si 841  11.22970 25.43675 -21.55950
Si 842  7.66594 27.34954 -23.46780
Si 846  4.88556 27.16229 -24.15790
Si 847  5.69312 29.58948 -24.07920
Si 853  3.42130 31.38520 -24.56590
Si 854  2.64907 28.60575 -24.65750
Si 855  1.38340 29.97163 -26.57170
Si 856  0.48550 26.94492 -25.98460
Si 859  2.34501 25.58992 -24.53780
Si 861  3.56241 22.69740 -24.10710
Si 864  1.67660 21.45540 -25.56250
Si 868  5.40159 22.05220 -22.37220
Si 869  4.04578 20.94470 -20.06440
Si 870  7.98629 20.43030 -21.32300
Si 873  8.85745 21.57030 -23.83890
Si 876  12.12320 22.18820 -22.00730
Si 878  3.56976 19.17290 -18.49242
Si 880  4.34247 22.68660 -18.06162
Si 881  1.85880 23.57253 -16.04380
Si 882  5.90475 23.11560 -15.40553
Si 890  3.63212 23.73896 -14.35358
Si 897  3.67050 23.75956 -11.05850
Si 899  1.59660 21.35550 -13.97397
Si 901  4.31863 22.09870 -9.22860
Si 902  4.01045 19.17250 -8.44030
Si 903  7.26190 22.99100 -9.14990
Si 905  7.53783 25.40789 -7.34590
Si 907  3.80780 18.23310 -5.77310
Si 909  -0.37330 19.29590 -24.74400
Si 910  1.96276 19.19510 -23.36980
Si 913  2.40696 16.88540 -21.27320
Si 919  4.27211 14.38910 -21.03070
Si 920  6.37313 14.20540 -22.57900
Si 921  -2.15310 25.53116 -26.33070
Si 922  -3.17860 27.86778 -25.91630
Si 926  -3.44870 25.90488 -28.62330
Si 927  -5.66270 25.58484 -30.04170
Si 928  -1.27930 30.42219 -26.47230
Si 930  -0.30250 29.12020 -28.96370
Si 931  -1.94490 29.29151 -31.02720
Si 938  0.08810 27.84346 -32.12420
Si 940  1.56210 31.19163 -29.63830
Si 941  3.14191 32.22400 -27.66450
Si 944  2.07771 30.32740 -32.00670
Si 947  0.83510 32.70160 -32.59510
Si 950  0.63980 30.45206 -34.91366
Si 951  -1.58160 29.76188 -35.97520
Si 953  2.90732 28.74925 -36.07269
Si 957  -1.88100 28.30442 -34.03878
Si 961  3.17502 26.77181 -34.45626
Si 962  2.92827 33.83790 -25.00040
Si 963  10.08580 24.62271 -18.25008
Si 967  11.16790 34.40730 -17.65032
Si 968  10.86320 39.29160 -11.36010
Si 969  8.20023 38.61050 -12.99427
Si 971  8.92241 41.27660 -11.65932
Si 972  17.66880 15.12290 -4.30180
Si 976  17.75170 13.56020 -6.90390
Si 979  16.00420 16.65810 -7.65110
Si 980  20.31750 12.71340 -7.16830
Si 986  13.45480 15.39900 -6.34180
Si 987  14.49730 11.23830 4.36967
Si 990  16.77590 3.68595 5.38465
Si 991  18.23200 0.80810 1.55230
Si 992  20.22030 -0.55930 0.51160
Si 995  18.37540 -2.19340 -0.06180
Si 997  17.39700 -3.40540 3.06603
Si 1002 14.36800 -4.48890 2.87654
Si 1005 12.86170 -3.35570 5.43973
Si 1006 13.89420 -5.59850 6.32510
Si 1007 16.40410 1.05700 6.21248
Si 688  21.27100 11.18950 1.70970
Si 900  19.13300 11.80800 4.25485
Si 858  5.67610 10.93430 12.03760
Si 984  6.19228 8.55139 13.06220
