12
Lattice="23.7651 0.0 0.0 0.0 23.7651 0.0 0.0 0.0 23.7651"
Si 691  0.29060 16.30050 7.62612
Si 821  0.28470 14.52890 5.40802
Si 927  2.32701 16.72960 5.67024
Si 935  -1.87470 18.07580 7.11035
Si 944  0.40990 16.18530 10.13380
Si 976  1.92145 14.05840 9.59096
Si 707  9.86504 22.32660 5.76437
Si 725  11.45160 24.54000 7.00433
Si 890  8.64693 19.96520 7.15283
Si 898  12.01040 21.14120 4.14536
Si 996  8.22372 23.30220 4.30517
Si 1004 6.74396 23.81800 6.72853
