10
Lattice="24.4516 0.0 0.0 0.0 24.4516 0.0 0.0 0.0 24.4516"
O 38  10.13500 19.33470 13.64590
O 70  11.67890 19.98960 15.38910
O 132 8.43960 17.61630 13.97370
O 182 10.58430 19.67730 11.23420
O 217 8.29824 19.81260 15.40580
O 234 8.06161 19.52580 11.99180
O 319 9.96174 17.35500 11.81050
O 367 12.40060 20.74400 13.05250
O 406 10.25170 22.04170 14.14040
O 644 9.96472 17.93280 16.21200
