9
Lattice="24.4516 0.0 0.0 0.0 24.4516 0.0 0.0 0.0 24.4516"
O 65  4.42160 18.17760 6.38811
O 105 3.55735 20.27100 6.60754
O 121 5.07082 17.19580 8.50328
O 184 3.33711 18.26010 4.19516
O 291 5.56928 19.55190 4.69074
O 309 5.68950 19.74240 8.01123
O 333 4.84833 15.56940 6.34436
O 498 7.00098 17.14740 6.47077
O 617 3.05334 19.03480 8.80027
