10
Lattice="24.4516 0.0 0.0 0.0 24.4516 0.0 0.0 0.0 24.4516"
O 38  10.32550 19.17290 13.50070
O 70  8.49466 17.59410 13.92000
O 132 11.77030 20.19370 15.37290
O 182 8.35731 19.81130 11.94340
O 217 10.82850 19.77920 10.98940
O 234 10.01150 17.36560 11.60330
O 319 8.51287 19.82030 15.40420
O 367 12.55100 20.68490 13.01470
O 406 10.31750 21.91290 13.92380
O 644 10.03260 17.94120 16.14370
