10
Lattice="24.4516 0.0 0.0 0.0 24.4516 0.0 0.0 0.0 24.4516"
O 38  9.85567 19.24160 13.91290
O 70  8.09736 17.59300 14.29240
O 132 11.21860 20.14070 15.73210
O 182 10.41160 19.54580 11.37500
O 217 7.90375 19.71330 15.59650
O 234 7.91804 19.79980 12.21630
O 319 12.02160 20.67210 13.31840
O 367 9.38645 17.43170 11.99670
O 406 9.89211 21.91790 14.09070
O 644 9.48936 17.89470 16.56770
