12
Lattice="24.4516 0.0 0.0 0.0 24.4516 0.0 0.0 0.0 24.4516"
O 65  4.97243 17.21370 8.44568
O 105 4.45776 18.04880 6.34021
O 121 5.32263 15.35750 10.17330
O 150 2.82727 16.33200 9.62005
O 184 3.03182 18.96530 8.60596
O 291 4.73839 17.87710 11.00290
O 309 6.93559 17.19430 6.63225
O 333 5.66166 19.81180 7.81548
O 337 4.86826 15.41430 6.34821
O 469 3.42447 20.08070 6.42628
O 498 5.52666 19.54740 4.62950
O 617 3.34888 18.26340 4.05705
