335
Lattice="24.4516 0.0 0.0 0.0 24.4516 0.0 0.0 0.0 24.4516"
Si 672  21.35010 5.70923 15.29590
Si 673  22.96310 7.35821 13.29330
Si 674  23.73720 3.74004 15.95700
Si 675  20.59790 6.98564 18.18080
Si 676  19.41480 3.13816 14.74080
Si 677  18.86770 1.66314 11.94770
Si 678  19.37280 0.57256 16.72740
Si 679  17.85740 5.18544 13.77500
Si 680  15.00900 4.68565 12.76840
Si 681  19.28590 6.23363 11.35180
Si 682  17.57380 8.03957 15.14760
Si 683  14.55510 8.78969 15.61840
Si 684  19.42560 9.49034 17.14220
Si 685  17.61990 8.65174 12.33210
Si 686  14.59540 7.71146 12.80390
Si 687  17.86360 10.21300 9.94027
Si 688  15.70890 11.37570 8.64179
Si 689  19.01590 9.15122 7.51846
Si 690  20.52260 11.68630 9.64498
Si 691  21.86280 12.15680 12.47790
Si 692  21.85420 9.22776 8.05422
Si 693  22.36230 13.83920 8.96047
Si 694  23.19990 16.71900 8.54914
Si 695  25.16306 12.93600 8.90159
Si 696  26.10617 15.87300 8.69267
Si 697  27.48549 11.96810 7.00205
Si 698  24.57780 11.28090 11.48300
Si 699  27.40166 11.34860 12.05470
Si 700  23.51090 8.48256 10.38800
Si 701  26.45643 7.87643 9.27657
Si 702  27.25330 6.01983 11.50930
Si 703  28.20355 7.25724 6.98312
Si 704  28.42960 10.38500 9.49287
Si 705  31.04548 9.59278 10.88700
Si 706  32.69316 7.32556 9.85465
Si 707  29.51953 9.36072 13.41610
Si 708  31.57049 12.51290 12.05090
Si 709  31.40672 14.82020 9.90431
Si 710  30.16321 14.47690 13.88240
Si 711  34.59700 13.35410 12.78000
Si 712  36.91770 11.70510 11.64320
Si 713  35.04450 13.61680 15.78570
Si 714  34.16556 16.07070 10.96230
Si 715  35.47290 17.23590 8.34107
Si 716  34.02240 19.03140 12.10930
Si 717  36.07820 20.03280 9.76309
Si 718  31.24271 20.72530 11.65880
Si 719  35.47430 20.67630 14.20500
Si 720  33.50704 18.77320 14.96560
Si 721  31.09666 17.06560 14.33490
Si 722  34.77300 18.34140 17.80700
Si 723  31.57036 20.96750 16.13300
Si 724  29.54475 22.90730 15.31450
Si 725  28.94023 20.65810 17.14720
Si 726  32.35423 22.49730 18.70290
Si 727  30.01225 24.05950 19.85780
Si 728  33.89706 25.14576 18.88630
Si 729  34.25852 20.64560 19.91320
Si 730  34.25956 19.71660 22.76540
Si 731  37.00020 21.85800 19.18670
Si 732  39.83740 20.72220 19.59440
Si 733  36.98710 19.72450 16.83020
Si 734  36.50200 24.63040 17.54650
Si 735  37.43800 24.15300 14.62110
Si 736  39.15640 26.40129 17.81620
Si 737  38.36320 28.86816 19.47600
Si 738  41.52280 24.87155 18.94800
Si 739  38.52170 26.98345 14.92240
Si 740  35.70790 28.26577 15.78720
Si 741  34.39789 30.41481 14.10590
Si 742  33.33552 26.22238 14.77180
Si 743  35.37370 28.66650 18.99740
Si 744  34.82260 31.67805 18.87040
Si 745  32.50947 27.58459 18.68000
Si 746  31.10574 29.37116 20.53280
Si 747  31.19873 29.94580 17.71090
Si 748  28.88270 28.11445 17.36680
Si 749  32.80720 32.04623 16.42010
Si 750  31.32811 34.62240 15.83020
Si 751  32.64423 37.00740 17.26550
Si 752  29.53294 34.67590 18.41600
Si 753  30.60685 35.68200 21.09800
Si 754  27.35603 32.86839 19.65060
Si 755  27.17406 36.90460 18.20390
Si 756  24.35360 35.52160 17.52550
Si 757  26.93093 39.03320 20.60590
Si 758  27.02089 39.37790 16.33610
Si 759  24.99355 41.39130 15.97070
Si 760  27.28342 38.78560 13.17780
Si 761  29.84822 40.33280 16.60620
Si 762  31.32204 39.05050 19.13320
Si 763  29.52359 38.24820 21.66110
Si 764  34.11394 40.63380 19.99760
Si 765  33.37342 41.43100 22.97180
Si 766  35.69820 38.00060 20.33900
Si 767  38.51820 37.93570 21.85050
Si 768  33.62064 36.44000 21.89300
Si 769  35.30950 36.03330 17.78400
Si 770  37.53270 34.41186 19.04260
Si 771  38.98660 36.07260 17.13380
Si 772  37.88000 31.62856 17.91290
Si 773  35.31980 33.80992 21.13100
Si 774  36.02110 33.68797 23.99710
Si 775  33.73480 35.69370 24.80212
Si 776  37.77360 31.48448 24.92891
Si 777  38.27110 35.59180 24.98536
Si 778  40.49880 35.90080 23.10410
Si 779  37.83380 38.71670 24.62460
Si 780  38.72360 35.38780 27.89689
Si 781  41.44460 36.72410 27.68048
Si 782  38.99070 32.72521 29.57677
Si 783  36.71930 37.67740 28.66232
Si 784  38.71880 40.04360 29.41766
Si 785  35.01170 36.84950 31.12404
Si 786  34.30015 37.84130 26.94557
Si 787  35.13890 40.04150 25.29960
Si 788  31.82809 37.89390 28.80881
Si 789  32.64816 38.65920 31.49317
Si 790  29.84800 35.52860 27.86599
Si 791  31.08223 40.28980 26.87176
Si 792  28.69426 42.04510 27.27185
Si 793  33.14459 42.58410 27.76296
Si 794  30.67034 39.98420 23.72080
Si 795  28.47954 42.36740 23.14140
Si 796  28.87913 45.01270 24.00840
Si 797  26.42004 41.65330 24.99678
Si 798  26.84201 42.08120 20.41630
Si 799  26.46988 43.62750 17.59230
Si 800  23.78330 43.13210 20.85260
Si 801  24.19610 45.37310 18.71640
Si 802  23.74550 45.16210 23.45840
Si 803  20.95610 42.37300 20.54530
Si 804  19.42170 44.77760 22.01400
Si 805  20.47050 42.66750 17.41210
Si 806  19.41940 39.67050 20.84750
Si 807  18.22620 38.27830 23.44690
Si 808  17.83310 39.05950 18.31340
Si 809  21.54780 37.38420 20.04300
Si 810  24.29520 37.53900 21.16970
Si 811  20.64680 34.94460 21.76040
Si 812  21.86060 37.53160 17.11870
Si 813  20.39930 35.84630 14.99600
Si 814  22.11680 40.37640 16.04080
Si 815  21.99880 39.60750 12.92380
Si 816  25.01192 40.75800 12.77110
Si 817  20.04720 41.66070 11.29220
Si 818  17.85950 43.16180 12.80030
Si 819  18.27620 40.37890 9.15147
Si 820  22.69350 42.66650 11.19010
Si 821  23.26600 44.21790 13.50880
Si 822  23.67330 44.93990 9.37520
Si 823  20.66400 45.32660 9.41092
Si 824  24.94535 47.81790 9.09395
Si 825  26.49807 44.52080 9.35679
Si 826  28.60208 43.79930 7.58567
Si 827  25.96940 43.66430 12.33410
Si 828  27.69798 47.25560 10.03250
Si 829  29.48858 47.98320 7.88031
Si 830  27.78624 47.85220 12.81100
Si 831  29.64414 50.16846 12.55030
Si 832  25.47176 48.52990 14.59040
Si 833  26.24818 48.66250 17.55770
Si 834  22.62650 48.64080 13.45020
Si 835  23.93420 51.03915 13.71340
Si 836  24.45600 53.80916 12.24090
Si 837  21.96930 54.25632 10.25370
Si 838  22.00610 54.16563 7.04907
Si 839  20.68570 51.38731 9.86298
Si 840  22.60970 49.67771 8.23520
Si 841  18.10670 52.68714 9.94811
Si 842  15.09710 52.28899 9.86693
Si 843  14.67130 49.16180 9.80765
Si 844  13.91610 53.67639 7.24619
Si 845  13.12850 56.68364 7.58814
Si 846  15.51940 52.78959 4.64297
Si 847  11.34330 52.01222 7.30780
Si 848  10.39900 51.83956 4.53304
Si 849  10.71640 52.72837 10.18220
Si 850  11.76270 50.04062 9.62806
Si 851  8.92731 48.77100 9.14038
Si 852  7.66873 48.13010 11.85530
Si 853  7.14914 50.05300 6.99951
Si 854  9.69205 45.96940 7.81120
Si 855  6.72549 45.50650 8.46557
Si 856  10.26570 46.36070 4.82751
Si 857  11.23280 44.15350 2.98293
Si 858  7.76155 48.25530 4.52521
Si 859  13.06090 47.63400 4.61454
Si 860  14.98010 47.47950 7.12482
Si 861  13.27490 45.93020 2.07325
Si 862  14.36990 50.32314 3.29585
Si 863  16.66890 48.92680 1.58544
Si 864  12.01150 51.16373 2.25341
Si 865  11.94400 48.51760 0.73258
Si 866  11.57380 54.00940 1.50406
Si 867  8.77991 55.62914 1.31470
Si 868  13.82340 55.04056 3.20311
Si 869  8.13326 57.17385 3.52787
Si 870  6.04753 54.39112 1.50789
Si 871  7.60852 54.10623 -0.92080
Si 872  8.83262 51.22382 -0.62680
Si 873  10.45040 49.51810 -2.62190
Si 874  8.37660 50.30713 2.46933
Si 875  6.34686 49.78959 -2.01590
Si 876  6.44705 47.44360 -0.09170
Si 877  4.12549 51.08864 -0.83290
Si 878  2.60231 53.87195 -0.49420
Si 879  2.12146 48.61230 -0.60900
Si 880  5.42783 51.39976 2.08785
Si 881  3.90603 52.26802 4.32114
Si 882  6.62668 52.96300 5.92961
Si 883  2.41659 54.86463 4.44468
Si 884  1.52682 50.68907 5.45348
Si 885  2.11092 47.79270 6.51215
Si 886  -1.29470 51.41221 5.74493
Si 887  -0.60120 49.70884 3.65134
Si 888  -2.20470 47.13390 4.55874
Si 889  -0.66190 49.88037 0.38006
Si 890  -3.55600 48.98580 0.04210
Si 891  -0.03640 52.41594 -1.01580
Si 892  -2.89230 52.74454 -2.11900
Si 893  0.93276 50.53692 -3.50480
Si 894  3.43356 50.63137 -5.39800
Si 895  -1.20180 52.07425 -5.41510
Si 896  -0.42460 48.30090 -4.79410
Si 897  -3.22800 49.75519 -5.37050
Si 898  -4.33100 50.17634 -2.67570
Si 899  -6.78380 51.65812 -3.36670
Si 900  -9.43100 52.59686 -2.09870
Si 901  -4.95270 54.00216 -4.18660
Si 902  -6.56410 56.23578 -2.73520
Si 903  -8.80700 55.34193 -0.99830
Si 904  -6.84370 58.94250 -3.44840
Si 905  -6.16700 56.17182 0.16940
Si 906  -4.43570 53.45141 0.55710
Si 907  -5.11020 57.22697 3.02710
Si 908  -4.82670 60.20570 2.76986
Si 909  -3.38390 54.72035 3.19612
Si 910  -6.92870 56.17629 5.51614
Si 911  -5.08170 53.73860 5.68731
Si 912  -6.22730 51.34264 4.72991
Si 913  -5.18560 50.75823 1.85661
Si 914  -6.62520 48.48680 5.72344
Si 915  -6.85990 46.60540 3.24154
Si 916  -3.92910 47.56080 7.19410
Si 917  -7.77830 44.05860 4.91322
Si 918  -4.01030 45.67040 2.75592
Si 919  -3.42260 45.91950 -0.04500
Si 920  -4.79540 43.13920 4.38353
Si 921  -3.27750 41.40280 1.95657
Si 922  -2.38640 42.19100 5.99788
Si 923  -0.77780 44.27980 4.36719
Si 924  -1.58070 39.83520 4.03808
Si 925  1.43709 39.02490 3.87413
Si 926  -3.43850 37.54230 4.93230
Si 928  -5.67360 39.23260 6.21291
Si 929  -1.58710 35.23350 5.70732
Si 930  1.17635 35.88150 4.78630
Si 931  -0.56020 33.73489 3.36225
Si 932  -0.63250 33.91051 0.13550
Si 933  -0.65830 30.73653 4.67094
Si 934  -0.85780 37.07860 -0.22870
Si 935  -1.67800 32.77622 -2.45240
Si 936  2.59378 33.86948 0.00260
Si 937  3.86220 36.42360 1.09162
Si 938  5.14557 33.21101 -1.54710
Si 939  3.41310 31.43470 1.91985
Si 940  4.15939 30.73063 -2.79600
Si 941  6.29615 34.69990 0.78487
Si 942  1.88265 38.71140 0.78751
Si 943  0.41491 34.53160 -4.09680
Si 944  -1.21730 30.69421 -4.68540
Si 945  1.02694 31.61501 -6.54520
Si 946  0.10940 33.24516 -9.07070
Si 947  2.12475 29.40871 -8.50370
Si 948  2.83215 31.95235 -10.27600
Si 949  -3.65710 36.70700 0.04170
Si 950  -7.27000 39.87790 3.60592
Si 951  -6.75500 36.22690 6.30173
Si 952  -6.16090 40.78910 0.86244
Si 953  -7.38330 42.96200 -1.24870
Si 954  -9.63580 42.38300 -3.40070
Si 955  -9.39170 45.07640 -0.13680
Si 956  -8.49710 47.93680 -1.36130
Si 957  -11.56310 43.10540 -1.33240
Si 958  -11.28250 41.26600 1.28512
Si 959  -10.69930 42.77920 3.92459
Si 960  -6.83870 46.88040 -3.64390
Si 961  -11.04760 49.79223 -1.91210
Si 962  -9.50950 39.65810 -5.02510
Si 963  -11.20790 38.97680 -7.56700
Si 964  -9.89130 39.84230 -9.89430
Si 965  -9.45650 42.10030 -11.99010
Si 966  -9.45240 37.34300 -11.55160
Si 967  -6.63670 39.69210 -9.17150
Si 968  -6.56390 37.09240 -10.86700
Si 969  -6.41520 42.80150 -8.87360
Si 970  -8.84190 44.63520 -8.04640
Si 971  -9.16480 46.44790 -10.63150
Si 972  -11.01660 44.72420 -12.25370
Si 973  -7.45520 47.88460 -12.67990
Si 974  -6.50890 45.29230 -14.08930
Si 975  -8.62800 44.61130 -16.49700
Si 976  -9.05880 41.75540 -15.18744
Si 977  -11.00120 39.89800 -16.67406
Si 978  -11.61580 36.92000 -15.70009
Si 979  -7.45340 37.87550 -13.69420
Si 980  3.44060 39.43370 6.16665
Si 981  5.47047 41.46010 7.01160
Si 982  4.50456 41.10380 9.98812
Si 983  8.55240 41.55040 6.27076
Si 984  4.59394 43.14640 12.57200
Si 985  -0.75960 42.98300 1.38543
Si 986  1.84825 45.67230 4.30749
Si 987  2.93016 46.65070 1.79684
Si 988  5.61495 47.30930 2.86620
Si 989  6.05209 44.28770 3.25182
Si 990  -7.01520 60.50680 -6.07600
Si 991  5.91158 54.49691 8.63968
Si 992  9.10462 54.54543 4.85115
Si 993  9.94869 56.14908 7.11326
Si 994  8.73546 58.77385 5.74670
Si 995  5.89720 57.98941 5.48535
Si 996  5.38077 52.95980 11.29390
Si 997  8.39331 52.64160 12.47530
Si 998  2.17860 46.20340 -2.30370
Si 999  3.28109 46.64210 -4.86730
Si 1000 9.54614 47.13670 -0.79680
Si 1001 10.10130 48.09430 13.74070
Si 1002 10.60850 55.46714 11.29410
Si 1003 12.61880 57.61197 10.44520
Si 1004 21.14560 46.28730 12.35610
Si 1005 20.37540 47.39640 14.82630
Si 1006 22.20210 45.12840 16.34350
Si 1007 30.37741 50.41134 15.60710
