334
Lattice="24.4516 0.0 0.0 0.0 24.4516 0.0 0.0 0.0 24.4516"
Si 672  21.59190 5.48350 15.08270
Si 673  23.99360 3.72422 15.90400
Si 674  20.95960 6.88944 17.89370
Si 675  23.39230 7.10701 13.28510
Si 676  19.68540 3.01835 14.56270
Si 677  17.83890 5.07873 13.80850
Si 678  19.01720 1.60869 11.81400
Si 679  19.45680 0.50794 16.48810
Si 680  21.36340 0.75247 18.99810
Si 681  17.27450 0.56684 18.59000
Si 682  20.63940 -1.60460 14.63210
Si 683  22.58390 -3.69970 16.10530
Si 684  22.86220 -0.20120 13.36760
Si 685  21.71130 -2.32230 11.96470
Si 686  23.73420 -4.50000 13.23690
Si 687  20.99080 -3.35870 8.98044
Si 688  18.16750 -3.65200 10.11820
Si 689  23.97420 -4.08440 9.18439
Si 690  20.88040 -1.32500 6.85852
Si 691  22.86660 0.60076 8.27887
Si 692  22.75950 -1.71790 4.30724
Si 693  18.02640 -0.49340 5.62651
Si 694  15.42650 -1.57120 6.97412
Si 695  17.86330 -2.29230 3.07952
Si 696  18.42610 2.34887 4.76750
Si 697  19.29970 1.77207 1.82668
Si 698  19.72620 4.74925 5.64947
Si 699  15.73070 3.83926 4.66563
Si 700  14.02770 4.70862 7.14552
Si 701  14.57910 1.39944 3.09711
Si 702  14.11390 5.99097 3.09391
Si 703  13.55810 6.90615 0.31259
Si 704  14.96270 8.13759 4.98170
Si 705  11.72630 5.02831 1.39670
Si 706  12.18160 2.18781 2.08039
Si 707  8.93000 6.58090 1.22757
Si 708  8.40074 8.23112 3.35300
Si 709  6.28598 5.18170 1.36228
Si 710  7.92246 5.14881 -1.01910
Si 711  8.97809 2.21489 -0.72260
Si 712  6.69360 5.07545 -3.96990
Si 713  4.23696 6.33799 -2.89720
Si 714  6.96985 5.71860 -6.72960
Si 715  8.21693 3.29963 -5.65270
Si 716  9.61640 0.83677 -5.70990
Si 717  10.88330 4.50388 -5.45650
Si 718  10.68760 7.42757 -5.83460
Si 719  13.95240 4.63973 -5.03290
Si 720  11.28290 3.66044 -8.49820
Si 721  10.20370 5.89104 -10.30250
Si 722  9.09480 1.69028 -9.59180
Si 723  14.04240 2.60366 -9.60310
Si 724  13.06330 -0.34310 -9.95350
Si 725  15.04830 4.57826 -11.97620
Si 726  14.83590 2.11675 -6.80600
Si 727  12.38410 0.11770 -6.85790
Si 728  12.92190 -2.61960 -5.48540
Si 729  12.79380 -4.62850 -7.83730
Si 730  15.68280 -3.90100 -5.15140
Si 731  10.05410 -3.80230 -4.88430
Si 732  10.61420 -6.15370 -6.79000
Si 733  8.03286 -1.91030 -5.95120
Si 734  10.32880 -4.73680 -1.91220
Si 735  13.36810 -5.68770 -1.50000
Si 736  9.84538 -1.68260 -1.14970
Si 737  9.30622 -7.46730 -1.65220
Si 738  6.39042 -8.56700 -0.92620
Si 739  9.89536 -8.37250 -4.65310
Si 740  11.14560 -9.14870 0.46982
Si 741  13.54190 -7.70980 0.98961
Si 742  10.33540 -11.39050 2.35927
Si 743  13.95620 -10.18220 -0.34350
Si 744  14.35440 -11.20070 -3.14420
Si 745  14.12410 -13.26810 0.45346
Si 746  16.30930 -12.90390 -1.54260
Si 747  14.61870 -13.65570 3.27667
Si 748  11.96980 -15.15207 -0.60870
Si 749  11.29390 -14.91462 -3.48720
Si 750  9.63555 -13.39060 0.13120
Si 751  6.54032 -14.06150 0.63608
Si 752  9.51387 -12.49850 -2.64990
Si 753  11.51190 -10.98990 -4.48910
Si 754  6.56369 -13.31040 -3.36940
Si 755  5.50769 -15.68115 -1.63740
Si 756  5.42507 -10.54780 -2.87810
Si 757  5.50062 -14.16870 -5.98550
Si 758  3.19989 -15.89463 -4.86820
Si 759  7.00171 -14.17970 -8.69160
Si 760  3.23724 -11.94760 -6.40560
Si 761  2.73345 -9.92380 -3.93280
Si 762  0.38356 -13.27160 -7.11450
Si 763  3.13239 -9.48100 -8.31210
Si 764  0.90342 -7.61640 -8.54160
Si 765  5.78777 -8.81870 -8.23100
Si 766  3.10619 -10.23700 -11.36970
Si 767  3.26676 -13.15560 -12.58130
Si 768  0.85914 -8.15840 -11.76450
Si 769  6.03682 -10.11740 -10.91270
Si 770  7.68368 -11.96400 -12.77350
Si 771  7.00517 -7.49290 -10.46920
Si 772  9.40199 -5.86480 -9.67100
Si 773  4.94850 -5.88940 -12.32320
Si 774  4.83622 -7.76180 -14.88331
Si 775  7.17803 -3.70530 -13.03490
Si 776  1.92162 -5.46890 -12.45190
Si 777  2.40773 -4.58440 -15.48485
Si 778  3.54688 -1.83460 -14.64887
Si 779  5.41895 -1.08070 -16.76901
Si 780  0.82506 -1.26680 -15.49268
Si 781  3.51421 -1.30360 -11.78130
Si 782  1.29482 -0.42620 -10.20670
Si 783  5.49288 -1.63690 -9.24370
Si 784  5.30159 1.20794 -12.02290
Si 785  5.64355 4.04802 -13.07940
Si 786  7.79625 -0.73450 -12.73730
Si 787  5.94976 1.42232 -8.97270
Si 788  4.68369 3.65782 -7.19630
Si 789  2.49124 4.99318 -8.56540
Si 790  3.46097 1.74098 -5.42460
Si 791  1.91679 -0.30030 -7.04300
Si 792  0.96756 1.60475 -3.65140
Si 793  5.63667 -0.49300 -4.64950
Si 794  3.39117 -2.42690 -5.00590
Si 795  6.34647 1.14567 -2.25490
Si 796  4.25736 2.17694 -0.78170
Si 797  6.78940 -1.26930 -0.50230
Si 798  6.13428 -1.65840 2.43003
Si 799  4.78745 -3.68370 -0.71540
Si 800  2.32227 -2.69630 -2.37260
Si 801  3.39651 -2.26260 1.53741
Si 802  4.25729 -6.41280 -1.63410
Si 803  2.27111 -7.41970 0.46218
Si 804  2.53162 -6.81520 -4.25390
Si 805  -0.49470 -5.85610 -3.74520
Si 806  2.33625 -5.22750 -7.04660
Si 807  -0.07910 -3.51930 -5.91690
Si 808  4.81741 -3.77430 -7.23330
Si 809  7.47279 -3.57860 -8.40620
Si 810  -0.38520 -0.70890 -4.94640
Si 811  -3.34820 -6.52830 -4.00110
Si 812  -0.19530 -4.03670 -1.10680
Si 813  -0.28570 -5.98150 1.33584
Si 814  -2.96140 -2.94840 -0.13450
Si 815  -4.65320 -3.94060 -2.61870
Si 816  -3.31430 0.06070 0.03530
Si 817  -3.66730 -3.23500 2.63271
Si 818  -4.37340 -5.84190 4.23028
Si 819  -7.42890 -4.90060 4.59578
Si 820  -1.92420 -6.63600 5.86717
Si 821  -2.88000 -7.62440 1.91488
Si 822  -1.08240 -9.14000 4.03044
Si 823  -5.71080 -8.10620 0.80233
Si 824  -6.82460 -5.84170 -1.17760
Si 825  -6.04730 -10.54510 -1.15480
Si 826  -6.88490 -9.14370 3.62634
Si 827  -7.00720 -12.33570 3.33412
Si 828  -9.90050 -8.99430 4.70306
Si 829  -5.17640 -9.79730 6.22881
Si 830  -5.84330 -8.35220 9.02830
Si 831  -6.29790 -12.81970 6.26584
Si 832  -2.94950 -11.31470 4.70837
Si 833  -4.36850 -13.15820 2.51561
Si 834  -1.47900 -13.85940 5.54487
Si 835  -2.44230 -15.30449 8.12607
Si 836  1.41323 -13.10670 4.62806
Si 837  -0.27110 -15.17936 3.28032
Si 838  -0.34400 -17.92426 4.83546
Si 839  -0.22710 -15.10427 0.11330
Si 840  -1.44190 -16.05997 -2.55190
Si 841  -0.64940 -11.85430 -0.42630
Si 842  2.89141 -15.11813 -0.02170
Si 843  3.65566 -17.53734 1.76756
Si 844  4.09578 -12.44080 0.89956
Si 845  5.38344 -13.27330 3.32615
Si 846  2.12819 -10.29800 0.49492
Si 847  1.83370 -10.06040 3.62649
Si 848  3.78612 -9.73000 6.06257
Si 849  3.28132 -12.68830 6.91254
Si 850  5.89047 -7.61850 6.47846
Si 851  2.10320 -8.72450 8.51885
Si 852  0.91187 -11.72660 8.75659
Si 853  -0.86260 -7.69610 8.50362
Si 854  -1.49280 -6.16350 11.11850
Si 855  -1.75590 -10.62240 8.82583
Si 856  -3.59920 -12.72810 9.53248
Si 857  -6.38750 -14.01530 10.00660
Si 858  -2.24850 -12.27800 12.46910
Si 859  -2.21120 -9.14810 12.83100
Si 860  0.34293 -13.27070 11.36410
Si 861  -3.77220 -13.20220 14.81160
Si 862  -2.22050 -11.38260 16.85500
Si 863  -6.13170 -11.70250 13.30800
Si 864  -4.75530 -15.14790 16.98540
Si 865  -6.73830 -12.87510 18.11780
Si 866  -6.63130 -16.53869 15.09200
Si 867  -6.44610 -15.92612 12.30180
Si 868  -9.63110 -15.50228 15.39110
Si 869  -10.69850 -17.02283 17.92140
Si 870  -9.60340 -16.77204 12.53850
Si 871  -9.57940 -12.72290 16.80840
Si 872  -10.99300 -9.81720 16.85740
Si 873  -11.32780 -14.31680 18.80720
Si 874  -13.44710 -13.01710 17.65840
Si 875  -16.00983 -11.94550 17.16900
Si 876  -13.70690 -10.85530 15.79950
Si 877  -13.88000 -10.91060 12.64800
Si 878  -11.60800 -12.72330 11.48690
Si 879  -14.42410 -8.46730 10.74750
Si 880  -13.14020 -7.01640 8.18599
Si 881  -14.64241 -5.49610 11.92900
Si 882  -17.14287 -9.70340 9.57660
Si 883  -15.81280 -10.19630 6.77158
Si 884  -13.60610 -12.15270 6.61504
Si 885  -16.75507 -11.15510 3.97399
Si 886  -15.39566 -7.29290 6.04768
Si 887  -15.25029 -6.41710 2.98400
Si 888  -12.78590 -4.71650 2.85344
Si 889  -17.89523 -4.74800 2.84571
Si 890  -17.43964 -8.59680 2.23178
Si 891  -19.82573 -6.88500 2.56497
Si 892  -13.86560 -2.58910 4.86837
Si 893  -10.84710 -2.81100 1.82872
Si 894  -10.13540 -6.34650 3.54190
Si 895  -12.31320 -0.45780 0.52606
Si 896  -11.06580 -1.27790 4.43096
Si 897  -9.00300 -3.84810 -0.32870
Si 898  -8.40630 -0.97040 -1.66370
Si 899  -10.77120 0.82225 -2.13720
Si 900  -6.56890 -1.89920 -3.96220
Si 901  -7.66350 -0.03010 1.34051
Si 902  -13.65950 0.73168 -2.76200
Si 903  -9.15310 3.60562 -2.38160
Si 904  -6.38540 2.81691 -3.66900
Si 905  -8.41200 6.18916 -1.02620
Si 906  -6.32070 7.37493 -2.79800
Si 907  -5.78340 7.14191 0.11790
Si 908  -4.73870 8.24330 2.86262
Si 909  -4.14380 4.44610 0.65741
Si 910  -2.89010 5.68174 3.16754
Si 911  -2.70930 3.71472 -2.13280
Si 912  0.11870 3.59556 -1.34110
Si 913  -4.62820 5.27939 -4.21200
Si 914  -4.03050 1.21385 -2.63400
Si 915  -0.37780 1.08189 0.34486
Si 916  2.63768 4.92921 -0.43000
Si 917  2.27292 -0.27210 -0.69540
Si 918  -0.17750 1.03935 3.57357
Si 919  1.97338 1.71002 5.55848
Si 920  -0.70520 2.58476 6.00157
Si 921  -1.99350 5.22249 7.11983
Si 922  -2.20790 5.12544 10.26440
Si 923  0.40913 4.85166 11.97270
Si 924  -3.45270 2.41566 9.86176
Si 925  -4.99430 5.98653 11.34090
Si 926  -6.17650 3.59612 9.74205
Si 928  -9.05760 3.32759 9.50278
Si 929  -9.69120 0.11330 9.65262
Si 930  -12.54580 1.08741 9.42600
Si 931  -7.27550 -1.08570 11.56170
Si 932  -8.97000 -2.37630 13.71480
Si 933  -8.73810 -4.34390 16.12410
Si 934  -10.75670 -4.20910 12.01040
Si 935  -13.23160 -3.90930 13.94090
Si 936  -9.18200 -6.72610 12.19190
Si 937  -12.52500 -4.28300 9.73157
Si 938  -14.46027 -2.87260 7.72376
Si 939  -15.32438 -0.13230 8.96547
Si 940  -17.38008 -3.63120 8.19809
Si 941  -16.94068 1.03961 6.72309
Si 942  -17.48354 3.93952 5.79826
Si 943  -16.24438 -0.81280 4.28704
Si 945  -15.89627 1.36737 2.36827
Si 946  -13.89030 2.89752 4.37815
Si 947  -18.92539 2.23748 2.06305
Si 948  -20.26967 3.16293 4.30853
Si 949  -21.68737 5.83817 4.39139
Si 950  -20.25239 7.05655 6.82997
Si 951  -18.38355 9.10506 5.24578
Si 952  -18.08002 5.43403 8.62540
Si 953  -21.95403 7.79802 9.09159
Si 954  -20.12630 10.33060 9.28390
Si 955  -21.17714 6.07327 11.45550
Si 956  -24.90600 8.31598 10.37370
Si 957  -21.17540 7.59972 14.13350
Si 958  -19.02635 9.33669 13.25040
Si 959  -23.86801 8.64485 15.37730
Si 960  -23.05970 6.96268 17.84860
Si 961  -25.50990 6.17363 19.68040
Si 962  -25.50250 3.17822 18.84150
Si 963  -17.52234 9.50465 10.73960
Si 964  -15.74499 7.39684 9.62340
Si 965  -14.09980 7.30460 7.01583
Si 966  -13.46800 6.50658 11.39650
Si 967  -11.41180 8.80900 10.49300
Si 968  -13.57290 3.75454 10.10880
Si 969  -13.05750 3.05653 7.22466
Si 970  -15.76175 3.60260 12.46400
Si 971  -11.11590 7.82582 7.46161
Si 972  -15.02607 5.56902 4.78979
Si 973  -15.42496 9.85149 5.64292
Si 974  -8.59080 -7.06670 9.00714
Si 975  -6.31040 -5.56690 12.61340
Si 976  -9.40280 -9.19760 14.27660
Si 977  -6.34650 -9.05150 15.03260
Si 978  -8.97800 -11.67500 12.64560
Si 979  -7.04700 -10.74930 10.59200
Si 980  -8.34400 -12.53640 8.57471
Si 981  -11.41200 -11.70850 8.57987
Si 982  -10.76350 -8.78060 7.60718
Si 983  -6.16150 -5.96700 15.32980
Si 984  -6.35390 -9.89080 18.02670
Si 985  -9.14650 -9.20220 19.12470
Si 986  -4.83650 -9.13990 20.69390
Si 987  -2.56790 -11.26360 19.86560
Si 988  0.16440 -11.22290 21.07490
Si 989  -3.43130 -13.79140 21.45340
Si 990  -6.52630 -14.28200 20.84740
Si 991  -3.41410 -12.22500 24.21030
Si 992  0.63825 -14.24610 20.28850
Si 993  -8.91720 -6.68000 20.91890
Si 994  -3.66600 -6.09260 17.27500
Si 995  -2.12980 -8.36860 15.88720
Si 996  -4.08570 -7.19470 11.08540
Si 997  -8.26900 -4.40330 7.58272
Si 998  -14.20420 -0.93650 13.61580
Si 999  0.03600 2.09699 13.51970
Si 1000 2.45677 -1.21990 6.39891
Si 1001 2.32476 -3.23970 4.04859
Si 1002 -0.22930 -4.58270 4.21779
Si 1003 -6.58250 7.21413 5.34330
Si 1004 -5.33710 9.02253 7.53802
Si 1005 -11.75900 -11.43400 4.22521
Si 1006 -17.34773 -9.80730 19.03570
Si 1007 8.72104 -16.65994 -8.20460
