6
Lattice="21.8375 0.0 0.0 0.0 21.8375 0.0 0.0 0.0 21.8375"
Si 805 3.8901900000000005 2.964739999999999 19.5208
O 294 2.6118999999999986 2.1035499999999985 19.2562
O 339 4.951900000000002 2.00695 18.621000000000002
O 359 4.14038 4.307369999999999 18.5405
O 555 2.727319999999999 4.198830000000001 20.4991
O 571 4.823520000000002 2.929220000000001 20.884099999999997
