6
Lattice="21.8375 0.0 0.0 0.0 21.8375 0.0 0.0 0.0 21.8375"
Si 834 5.73029 19.8857 6.04992
O 62 7.280840000000001 20.119499999999995 5.88325
O 197 5.064540000000001 21.1059 5.136240000000001
O 243 5.16667 20.616 7.567140000000002
O 248 5.913160000000001 18.4758 6.960830000000001
O 437 5.735379999999999 18.853 4.6020900000000005
