12
Lattice="21.8375 0.0 0.0 0.0 21.8375 0.0 0.0 0.0 21.8375"
Si 724 16.549299999999995 8.431919999999998 1.9110699999999987
Si 931 16.264199999999995 5.7537400000000005 2.312940000000001
O 38 15.353099999999998 7.254529999999999 1.7989700000000006
O 38 15.353099999999998 7.254529999999999 1.7989700000000006
O 132 17.174 9.067810000000001 0.5986000000000047
O 149 17.346600000000002 4.574860000000001 3.0118800000000014
O 159 17.546299999999995 6.737200000000001 1.9306699999999992
O 159 17.546299999999995 6.737200000000001 1.9306699999999992
O 177 15.660000000000004 4.79795 1.171599999999998
O 182 17.213100000000004 8.61984 3.380679999999998
O 234 15.293799999999997 9.62979 2.1981499999999983
O 598 15.487500000000004 5.67071 3.74672
