6
Lattice="21.8375 0.0 0.0 0.0 21.8375 0.0 0.0 0.0 21.8375"
Si 802 18.676300000000005 4.146139999999999 18.2461
O 66 19.0006 5.5505700000000004 17.4306
O 413 18.278 3.3316300000000005 16.5751
O 480 19.253499999999995 4.823969999999999 19.6845
O 610 17.305500000000002 3.5485100000000003 19.017900000000004
O 666 19.9024 2.9427400000000006 18.1044
