6
Lattice="21.8375 0.0 0.0 0.0 21.8375 0.0 0.0 0.0 21.8375"
Si 809 14.3917 18.510399999999997 14.278799999999997
O 178 15.689599999999999 18.327400000000004 12.962699999999998
O 244 14.919600000000003 17.101800000000004 14.887099999999997
O 252 14.997 19.955999999999996 14.634700000000002
O 554 13.016100000000002 18.326699999999995 15.265099999999997
O 567 13.141600000000004 18.842400000000005 13.1477
