6
Lattice="21.8375 0.0 0.0 0.0 21.8375 0.0 0.0 0.0 21.8375"
Si 984 16.8649 12.133900000000004 17.2449
O 31 18.153399999999998 11.5486 18.1344
O 255 15.872999999999998 12.172599999999996 15.939900000000002
O 363 16.6173 13.9133 17.4692
O 530 18.022 12.672400000000003 15.986800000000002
O 626 15.6603 11.7224 18.309199999999997
