24
Lattice="21.8375 0.0 0.0 0.0 21.8375 0.0 0.0 0.0 21.8375"
Si 690 14.347900000000003 11.7836 21.5604
Si 724 16.7935 8.51032 1.841239999999999
Si 848 16.877199999999995 9.76915 20.906100000000002
Si 931 16.640700000000002 5.701689999999999 2.1459800000000016
O 38 15.616300000000003 7.44819 1.4072000000000031
O 38 15.616300000000003 7.44819 1.4072000000000031
O 70 15.731699999999996 8.592190000000002 20.629200000000004
O 132 17.4923 8.975279999999998 0.41330000000000666
O 132 17.4923 8.975279999999998 0.41330000000000666
O 149 17.559800000000003 4.479520000000001 2.899259999999998
O 159 17.816700000000004 6.718530000000001 1.9057199999999987
O 159 17.816700000000004 6.718530000000001 1.9057199999999987
O 177 15.896700000000003 4.917860000000001 0.9872000000000014
O 182 17.1182 8.47815 3.435549999999999
O 217 18.2014 11.339800000000004 21.0567
O 234 15.665599999999998 9.76006 2.1464399999999983
O 348 13.244999999999997 10.689299999999996 20.908700000000003
O 367 15.762300000000003 10.891399999999997 21.4251
O 367 15.762300000000003 10.891399999999997 21.4251
O 394 17.789899999999996 9.460810000000002 19.6331
O 432 14.286200000000001 12.872099999999996 20.2958
O 496 14.708599999999997 13.2455 0.6299000000000063
O 568 13.6918 11.3701 1.2941000000000003
O 598 15.684899999999999 5.765640000000001 3.4518400000000007
