18
Lattice="21.8375 0.0 0.0 0.0 21.8375 0.0 0.0 0.0 21.8375"
Si 688 9.35305 12.534199999999998 8.844549999999998
Si 723 6.9158100000000005 11.790199999999999 8.346890000000002
Si 872 11.7579 11.809599999999996 10.686
O 101 10.2579 11.663499999999999 9.850850000000001
O 101 10.2579 11.663499999999999 9.850850000000001
O 154 12.8459 10.998799999999996 12.097099999999998
O 188 7.88082 13.1034 7.870069999999998
O 188 7.88082 13.1034 7.870069999999998
O 194 5.754249999999999 12.315199999999997 9.245910000000002
O 198 10.0606 11.990400000000001 7.482890000000001
O 340 12.292499999999997 10.533499999999997 9.72325
O 454 7.393709999999999 10.271499999999996 8.62293
O 462 7.924669999999999 12.226500000000001 9.9448
O 462 7.924669999999999 12.226500000000001 9.9448
O 494 9.80538 14.0045 9.189219999999999
O 524 10.817999999999998 12.4818 11.939700000000002
O 537 12.619700000000002 13.088799999999999 10.133200000000002
O 563 6.367619999999999 11.663000000000004 6.824849999999998
