12
Lattice="21.8375 0.0 0.0 0.0 21.8375 0.0 0.0 0.0 21.8375"
Si 678 1.880469999999999 21.740100000000005 13.837699999999998
Si 857 21.253999999999998 0.904200000000003 14.6939
O 53 0.10390000000000299 2.322400000000002 14.0257
O 99 20.226099999999995 0.5700000000000003 13.456299999999999
O 216 20.7239 21.0803 15.443100000000001
O 259 20.544000000000004 1.878029999999999 15.896999999999998
O 365 3.265740000000001 0.840600000000002 14.529800000000002
O 408 2.6559300000000015 20.3296 14.213999999999999
O 541 0.48109999999999786 20.8878 13.311
O 595 0.9116999999999962 0.41030000000000655 15.116799999999998
O 595 0.9116999999999962 0.41030000000000655 15.116799999999998
O 663 1.9538200000000003 0.7515000000000001 12.4358
