24
Lattice="21.8375 0.0 0.0 0.0 21.8375 0.0 0.0 0.0 21.8375"
Si 778 1.3851000000000013 7.054970000000001 3.6399800000000013
Si 796 3.311679999999999 8.71623 4.251660000000001
Si 823 5.1647 8.57112 7.039570000000001
Si 841 3.454550000000001 10.590200000000003 6.90409
O 23 6.176970000000001 9.068750000000001 5.852029999999999
O 97 2.3328300000000013 7.460250000000002 5.099429999999998
O 97 2.3328300000000013 7.460250000000002 5.099429999999998
O 124 4.2363 7.322939999999999 6.820499999999999
O 148 1.8575000000000017 8.743020000000001 3.346029999999999
O 148 1.8575000000000017 8.743020000000001 3.346029999999999
O 276 4.664189999999998 9.94944 7.760719999999999
O 276 4.664189999999998 9.94944 7.760719999999999
O 293 0.8507000000000033 6.803049999999999 2.1195999999999984
O 312 4.3415099999999995 7.499649999999999 3.8793000000000006
O 392 3.854309999999998 9.79935 3.06503
O 393 0.037700000000000955 6.532299999999999 4.307549999999999
O 430 3.1895300000000013 11.944000000000003 8.26841
O 451 3.221519999999998 11.907699999999998 6.047319999999999
O 534 6.23198 7.92362 8.08351
O 590 2.2474799999999995 5.6294 3.6675600000000017
O 603 2.1568000000000005 9.659379999999999 7.366389999999999
O 637 3.7624700000000004 9.542380000000001 5.560230000000001
O 637 3.7624700000000004 9.542380000000001 5.560230000000001
O 637 3.7624700000000004 9.542380000000001 5.560230000000001
