6
Lattice="21.8375 0.0 0.0 0.0 21.8375 0.0 0.0 0.0 21.8375"
Si 885 5.213799999999999 19.927100000000003 12.061100000000003
O 3 4.7301 19.1931 13.402900000000002
O 115 3.3082700000000003 18.913000000000004 11.301200000000001
O 141 6.653469999999999 20.584200000000003 12.393300000000004
O 609 4.255939999999999 21.1798 11.917700000000004
O 632 5.38419 19.437000000000005 10.485500000000002
