18
Lattice="21.8375 0.0 0.0 0.0 21.8375 0.0 0.0 0.0 21.8375"
Si 811 20.9003 6.620570000000001 10.270000000000003
Si 974 19.8219 6.020530000000001 8.069380000000002
Si 997 17.8328 6.682790000000001 9.817999999999998
O 16 19.970599999999997 6.5571100000000015 6.555009999999999
O 40 19.4013 6.877469999999999 9.440100000000001
O 40 19.4013 6.877469999999999 9.440100000000001
O 40 19.4013 6.877469999999999 9.440100000000001
O 206 17.030099999999997 5.351309999999998 10.431599999999996
O 269 20.6451 8.001460000000002 11.134099999999997
O 341 20.432499999999997 5.109670000000001 10.739399999999996
O 401 21.4039 6.5623000000000005 8.672150000000002
O 401 21.4039 6.5623000000000005 8.672150000000002
O 419 17.967400000000005 7.5155899999999995 11.2607
O 560 18.147600000000004 5.657330000000002 8.11569
O 560 18.147600000000004 5.657330000000002 8.11569
O 561 16.799100000000003 7.638159999999999 9.04063
O 576 0.688600000000001 6.32901 10.621499999999997
O 604 20.3022 4.476309999999998 8.216999999999999
