6
Lattice="21.8375 0.0 0.0 0.0 21.8375 0.0 0.0 0.0 21.8375"
Si 887 2.7167400000000015 0.31740000000000634 8.800820000000002
O 4 1.1615000000000038 1.0597000000000065 8.99568
O 36 3.277519999999999 1.0122999999999962 10.271300000000004
O 157 4.073140000000002 1.1962000000000046 8.0244
O 383 3.2043 20.706200000000003 9.34667
O 448 2.21237 21.559400000000004 7.343530000000001
