6
Lattice="21.8375 0.0 0.0 0.0 21.8375 0.0 0.0 0.0 21.8375"
Si 827 4.7808600000000006 15.098300000000002 6.28734
O 24 4.74042 16.0863 7.9267199999999995
O 55 3.70843 14.164099999999998 7.097560000000001
O 96 4.783239999999999 16.7207 5.75778
O 532 4.277360000000002 14.714800000000004 4.718989999999998
O 645 6.138529999999999 14.475699999999996 6.715900000000001
