6
Lattice="21.8375 0.0 0.0 0.0 21.8375 0.0 0.0 0.0 21.8375"
Si 984 16.716 12.4219 17.4484
O 31 17.812199999999997 11.5766 18.3425
O 255 15.737900000000003 12.307499999999997 16.1443
O 363 16.505000000000003 14.144100000000002 17.6196
O 530 17.9122 12.840800000000002 16.199199999999998
O 626 15.510600000000004 12.0931 18.5582
