12
Lattice="21.8375 0.0 0.0 0.0 21.8375 0.0 0.0 0.0 21.8375"
Si 678 1.730170000000001 0.16370000000000573 13.919199999999996
Si 857 21.0385 0.9196000000000026 14.682200000000002
O 53 0.015900000000002024 2.227409999999999 14.0805
O 99 20.003 0.6402000000000001 13.46
O 216 20.460699999999996 21.1265 15.449199999999998
O 259 20.366999999999997 1.887270000000001 15.907199999999996
O 365 3.0202899999999993 1.0957000000000008 14.494599999999998
O 408 2.59234 20.5531 14.1402
O 541 0.1424999999999983 20.827400000000004 13.3142
O 595 0.6741000000000028 0.27299999999999613 15.205599999999997
O 595 0.6741000000000028 0.27299999999999613 15.205599999999997
O 663 1.816510000000001 0.7010000000000005 12.348700000000001
