12
Lattice="21.8375 0.0 0.0 0.0 21.8375 0.0 0.0 0.0 21.8375"
Si 727 0.5052000000000021 14.9283 5.34543
Si 743 0.09020000000000294 12.439599999999999 6.05105
O 20 0.9314999999999998 12.140900000000002 7.4758700000000005
O 75 2.092970000000001 15.5593 4.84132
O 127 21.5351 15.548700000000004 4.102029999999999
O 267 0.587299999999999 11.8307 4.590969999999999
O 290 20.7023 11.348100000000002 6.315280000000001
O 338 0.3838000000000008 16.014500000000005 6.542590000000001
O 565 20.8872 13.613700000000001 5.572510000000001
O 565 20.8872 13.613700000000001 5.572510000000001
O 667 1.3367999999999967 13.7243 6.02807
O 667 1.3367999999999967 13.7243 6.02807
