6
Lattice="21.8375 0.0 0.0 0.0 21.8375 0.0 0.0 0.0 21.8375"
Si 705 4.086459999999999 15.499400000000001 10.977200000000003
O 74 3.450800000000001 16.384 12.202999999999996
O 301 4.109919999999999 14.141199999999998 9.777250000000002
O 324 5.478960000000001 16.276000000000003 10.758400000000002
O 422 4.639150000000001 14.1909 12.217399999999998
O 425 3.0143500000000003 16.0171 9.79787
