6
Lattice="21.8375 0.0 0.0 0.0 21.8375 0.0 0.0 0.0 21.8375"
Si 824 11.658999999999999 6.667629999999999 3.189700000000002
O 224 11.942900000000002 7.426079999999999 4.626730000000002
O 257 10.253599999999999 5.69941 3.8613800000000005
O 278 10.446999999999996 7.477650000000001 2.4374600000000015
O 385 13.1323 7.17661 2.6356
O 623 11.8962 5.406489999999998 1.992280000000001
