6
Lattice="21.8375 0.0 0.0 0.0 21.8375 0.0 0.0 0.0 21.8375"
Si 887 2.4969900000000003 0.13040000000000163 8.727719999999998
O 4 0.9321000000000055 0.9037000000000006 8.801650000000002
O 36 2.862400000000001 0.8734999999999999 10.1644
O 157 3.886939999999999 0.9326000000000008 8.09514
O 383 2.840489999999999 20.4377 9.30583
O 448 2.095649999999999 21.427799999999998 7.165939999999999
