12
Lattice="21.8375 0.0 0.0 0.0 21.8375 0.0 0.0 0.0 21.8375"
Si 727 0.44060000000000343 14.976399999999998 5.254349999999999
Si 743 0.1103999999999985 12.3887 6.081240000000001
O 20 1.0232000000000028 12.128599999999999 7.444589999999998
O 75 1.9732100000000017 15.520499999999998 4.7148
O 127 21.440800000000003 15.487200000000001 3.9923600000000015
O 267 0.705600000000004 11.6436 4.66319
O 290 20.8134 11.134300000000003 6.375730000000001
O 338 0.16190000000000282 15.928599999999996 6.50806
O 565 20.8378 13.595599999999997 5.53482
O 565 20.8378 13.595599999999997 5.53482
O 667 1.2744 13.676299999999998 5.985489999999999
O 667 1.2744 13.676299999999998 5.985489999999999
