6
Lattice="21.8375 0.0 0.0 0.0 21.8375 0.0 0.0 0.0 21.8375"
Si 825 16.8356 1.1444000000000045 3.719239999999999
O 369 17.6869 2.439119999999999 4.47289
O 377 17.338299999999997 0.4771000000000001 2.35266
O 415 15.6618 0.6216000000000008 4.7046199999999985
O 508 17.7917 21.823500000000003 4.595700000000001
O 577 15.780700000000003 2.192869999999999 2.7451100000000004
