6
Lattice="21.8375 0.0 0.0 0.0 21.8375 0.0 0.0 0.0 21.8375"
Si 887 2.594190000000001 0.3225000000000051 8.671880000000002
O 4 1.0317000000000007 0.8149000000000015 8.93439
O 36 3.11195 1.0940999999999974 10.107100000000003
O 157 3.9873699999999985 1.087600000000002 7.916429999999998
O 383 2.9656599999999997 20.580400000000004 9.28894
O 448 2.2121899999999997 21.647100000000002 7.098990000000001
