6
Lattice="21.8375 0.0 0.0 0.0 21.8375 0.0 0.0 0.0 21.8375"
Si 805 3.8627800000000008 3.06541 19.502000000000002
O 294 2.551020000000001 2.237000000000002 19.121900000000004
O 339 4.955770000000001 2.11834 18.6428
O 359 4.05772 4.302689999999998 18.426300000000005
O 555 2.6499999999999986 4.12743 20.4762
O 571 4.700780000000002 3.0353400000000015 20.8981
