12
Lattice="21.8375 0.0 0.0 0.0 21.8375 0.0 0.0 0.0 21.8375"
Si 885 5.092980000000001 19.866300000000003 11.971399999999996
Si 925 7.554130000000001 21.1402 13.378099999999996
O 3 4.735030000000002 19.1034 13.409399999999998
O 115 3.4504699999999993 18.7943 11.266399999999997
O 141 6.619070000000001 20.2798 12.3444
O 141 6.619070000000001 20.2798 12.3444
O 196 8.598010000000002 0.5991 13.750300000000003
O 239 7.169080000000001 0.9222999999999999 11.985399999999998
O 262 6.50038 21.339 14.5961
O 336 8.729979999999998 20.012300000000003 13.576100000000004
O 609 4.185209999999998 21.222299999999997 11.879799999999996
O 632 5.414090000000002 19.4887 10.354799999999997
