6
Lattice="21.8375 0.0 0.0 0.0 21.8375 0.0 0.0 0.0 21.8375"
Si 721 9.27855 6.2738499999999995 2.7202899999999985
O 90 7.767140000000001 6.553159999999998 3.3924200000000013
O 257 10.200800000000001 5.716160000000002 3.968679999999999
O 278 10.463699999999996 7.441780000000001 2.4309200000000004
O 515 8.25002 7.448219999999999 1.2195999999999998
O 613 9.232140000000001 5.18233 1.5501000000000005
