18
Lattice="21.8375 0.0 0.0 0.0 21.8375 0.0 0.0 0.0 21.8375"
Si 688 9.380229999999997 12.368699999999997 8.811790000000002
Si 723 6.975249999999999 11.841000000000001 8.00336
Si 872 11.825400000000002 11.624900000000004 10.752200000000002
O 101 10.444499999999998 11.468400000000003 9.84506
O 101 10.444499999999998 11.468400000000003 9.84506
O 154 12.889400000000002 11.0503 12.049799999999998
O 188 8.12801 12.9632 7.6142199999999995
O 188 8.12801 12.9632 7.6142199999999995
O 194 5.761150000000001 12.441899999999997 8.875
O 198 10.276000000000003 11.8461 7.562260000000002
O 340 12.485799999999998 10.400500000000001 9.664540000000002
O 454 7.57854 10.317700000000002 8.083660000000002
O 462 8.00104 12.081800000000001 9.72665
O 462 8.00104 12.081800000000001 9.72665
O 494 9.792290000000001 13.852600000000002 9.25056
O 524 10.962899999999998 12.536099999999998 11.870799999999996
O 537 12.7361 12.8551 10.1495
O 563 6.301690000000001 11.709299999999999 6.518979999999999
