6
Lattice="21.8375 0.0 0.0 0.0 21.8375 0.0 0.0 0.0 21.8375"
Si 809 14.161200000000001 18.553400000000003 14.220500000000001
O 178 15.4876 18.3303 13.058900000000001
O 244 14.582900000000002 17.1218 14.901800000000001
O 252 14.731200000000001 20.0385 14.686500000000002
O 554 12.845199999999998 18.579299999999996 15.289499999999997
O 567 12.964800000000004 18.984500000000004 13.143999999999998
