6
Lattice="21.8375 0.0 0.0 0.0 21.8375 0.0 0.0 0.0 21.8375"
Si 887 2.67399 0.31409999999999627 8.74754
O 4 1.1574000000000026 0.966700000000003 8.926920000000003
O 36 3.19698 1.0857000000000028 10.142400000000002
O 157 4.06448 1.1723 7.95261
O 383 2.966920000000002 20.722500000000004 9.45141
O 448 2.2718500000000006 21.537399999999998 7.2258
