6
Lattice="21.8375 0.0 0.0 0.0 21.8375 0.0 0.0 0.0 21.8375"
Si 885 5.0780899999999995 20.003499999999995 12.046199999999999
O 3 4.600539999999999 19.162600000000005 13.3799
O 115 3.214079999999999 18.938899999999997 11.256099999999996
O 141 6.53594 20.524099999999997 12.483399999999996
O 609 4.0336 21.211599999999997 11.919600000000003
O 632 5.200040000000001 19.625800000000005 10.5287
