12
Lattice="21.8375 0.0 0.0 0.0 21.8375 0.0 0.0 0.0 21.8375"
Si 766 6.826280000000001 21.598300000000002 18.9461
Si 990 7.857659999999999 1.8704499999999982 20.2175
O 9 8.268520000000002 3.346820000000001 19.501600000000003
O 118 7.330359999999999 1.3094999999999999 18.628700000000002
O 118 7.330359999999999 1.3094999999999999 18.628700000000002
O 327 7.04167 0.24890000000000612 20.592800000000004
O 327 7.04167 0.24890000000000612 20.592800000000004
O 428 5.614709999999999 20.7301 19.4803
O 433 9.33371 1.3220000000000027 20.536300000000004
O 518 8.287210000000002 20.9056 18.7759
O 621 7.103899999999999 2.417670000000001 21.527499999999996
O 634 5.949210000000001 21.8221 17.3872
