160
Lattice="20.9419 0.0 0.0 0.0 20.9419 0.0 0.0 0.0 20.9419"
Si 672  8.52080 9.29829 9.77069
Si 674  8.53301 8.39470 7.35869
Si 680  7.91507 10.88590 6.99785
Si 684  7.50602 8.73818 4.73247
Si 687  9.66898 10.88640 4.37545
Si 688  7.84970 13.33420 9.08812
Si 689  8.52502 15.83820 9.81928
Si 691  9.23862 14.86480 7.20516
Si 696  11.05790 14.60760 9.41979
Si 697  10.31110 13.24780 5.55823
Si 698  7.47455 14.61220 4.86201
Si 700  10.35620 16.04660 4.56502
Si 701  9.35616 17.82530 6.03537
Si 705  12.37950 18.02750 5.53818
Si 710  10.92330 20.50720 6.06876
Si 712  10.29260 19.46360 8.59768
Si 715  6.19187 17.19790 6.18690
Si 716  4.62087 16.27550 8.34584
Si 717  5.89448 20.29300 6.76712
Si 718  4.26307 13.77590 8.74157
Si 719  6.08827 17.31480 10.68260
Si 722  1.90480 17.47160 7.37239
Si 724  1.94990 19.42910 9.74436
Si 725  1.28970 20.50040 7.54527
Si 726  -1.02470 21.53890 7.75575
Si 728  3.20124 22.17030 9.38540
Si 731  5.63231 22.63350 10.32910
Si 732  3.05717 20.94180 12.39080
Si 734  2.26919 18.31350 13.33070
Si 737  1.49780 22.75970 14.68690
Si 739  3.10041 22.09470 16.68650
Si 745  3.72643 21.34120 19.30590
Si 746  1.25540 22.80540 18.80000
Si 747  -0.06460 22.37160 21.00150
Si 750  -0.89330 24.32235 17.20590
Si 751  -3.34870 24.99860 17.90250
Si 753  -2.36900 21.68090 16.86730
Si 761  -2.70160 22.73310 19.23160
Si 766  -4.00510 23.64244 21.21920
Si 770  -4.27580 21.06390 22.69590
Si 774  -2.26490 26.18178 22.21730
Si 776  -3.19840 28.69189 22.28200
Si 777  -4.76810 26.69490 23.40328
Si 781  -7.58420 27.41328 22.91850
Si 787  -6.60880 30.51297 21.73980
Si 790  -5.10570 29.89880 19.92250
Si 794  -9.58300 31.59650 21.90160
Si 796  -10.04590 33.51700 23.58882
Si 797  -6.93580 33.92380 24.29306
Si 798  -5.41360 33.29730 26.48046
Si 799  -3.74490 34.77600 25.43939
Si 800  -3.31190 37.46110 25.56468
Si 801  -3.52120 39.14550 27.37594
Si 802  -0.27750 36.37890 24.26961
Si 803  2.72951 36.48320 23.19519
Si 806  0.38650 37.22910 21.22200
Si 807  -4.45180 38.41450 29.91920
Si 809  -6.10960 40.24660 28.00022
Si 810  -6.43420 40.69090 30.60100
Si 811  -7.37410 38.82260 32.62690
Si 812  -7.34080 43.47150 30.04938
Si 813  -6.81910 45.66178 31.76330
Si 814  -4.49420 44.06913 30.44606
Si 815  -10.36870 42.91220 29.89033
Si 816  -12.55783 42.17400 31.35390
Si 817  -11.54944 44.46092 33.11570
Si 819  -12.21195 46.65836 31.90170
Si 823  -9.04290 45.91282 33.71100
Si 827  -13.16033 46.67959 34.75180
Si 828  -11.68992 49.21049 36.06390
Si 829  -11.86701 45.76409 37.55500
Si 830  -9.58210 44.75763 38.20710
Si 837  -9.48000 47.15829 36.56290
Si 842  -12.50469 48.34679 38.86310
Si 843  -15.13724 49.78243 38.22380
Si 845  -17.52527 50.48410 39.02760
Si 847  -19.20960 48.57768 40.52390
Si 854  -19.70760 50.97435 36.87780
Si 856  -18.80611 52.13290 34.59120
Si 859  -19.79280 49.99805 32.62770
Si 861  -19.72250 55.08090 33.92240
Si 863  -17.39983 56.39130 34.55930
Si 864  -22.04480 56.63390 32.37960
Si 865  -19.33230 57.70120 35.87130
Si 866  -21.52880 54.85640 36.89230
Si 868  -20.83520 54.68660 39.39540
Si 869  -22.41520 52.67990 41.30440
Si 870  -24.07420 54.56550 42.68370
Si 871  -20.98430 52.38800 44.09827
Si 873  -23.37180 49.77989 40.17370
Si 874  -26.12120 48.36370 39.30740
Si 882  -27.34020 47.69586 36.46170
Si 886  -27.72000 46.01887 34.69460
Si 887  -26.64210 49.32304 34.66690
Si 890  -29.49060 49.59758 36.01640
Si 891  -31.75470 51.44962 35.49350
Si 894  -23.58530 48.68341 35.25410
Si 895  -25.25510 50.61730 31.79830
Si 898  -22.64540 49.36276 31.42100
Si 900  -23.18100 51.02360 34.37010
Si 909  -22.98140 53.72960 32.16860
Si 910  -21.29700 51.94150 30.55895
Si 915  -20.35600 52.90950 28.21059
Si 917  -21.78510 52.46490 25.60005
Si 919  -23.29670 50.13533 26.85385
Si 920  -25.67110 49.40370 28.00390
Si 921  -23.59800 47.81448 29.13706
Si 927  -23.21520 46.29010 31.77830
Si 928  -22.31470 45.72253 27.02412
Si 929  -20.03020 44.84111 25.85811
Si 931  -25.13860 44.50600 26.81284
Si 933  -18.72878 47.17599 27.02987
Si 935  -18.60451 45.23110 23.22497
Si 936  -19.07290 42.63120 23.88555
Si 937  -19.22330 40.83770 21.44560
Si 938  -16.79582 43.90260 21.73720
Si 939  -22.36140 40.82050 21.82480
Si 940  -16.58651 47.18630 23.56278
Si 941  -17.45266 49.58293 22.13410
Si 942  -17.99241 51.75988 23.83489
Si 944  -18.19690 50.09288 26.09901
Si 948  -16.24409 53.09570 21.88870
Si 950  -14.07621 52.56010 19.41360
Si 953  -21.05940 59.97430 35.52660
Si 957  -16.55582 58.58660 36.79820
Si 959  -16.95777 60.02850 38.94280
Si 962  -14.65683 59.18830 34.15270
Si 963  -13.42918 56.76740 33.32690
Si 964  -14.18769 54.09600 33.90810
Si 965  -16.89968 57.12160 40.00180
Si 969  -24.01450 59.92590 35.35870
Si 970  -26.07510 60.22420 33.77330
Si 971  -24.50210 62.59510 35.89720
Si 972  -24.98160 62.86850 32.94980
Si 975  -23.38560 63.65500 31.29420
Si 976  -22.52340 59.00480 31.29330
Si 977  -7.32580 43.76340 39.28040
Si 979  -7.21640 42.34150 41.92050
Si 980  -6.59720 40.67410 39.24370
Si 981  -9.69970 41.55670 39.92270
Si 986  -10.21420 39.81670 41.89260
Si 987  -12.42722 39.90050 40.25880
Si 990  -10.20040 41.24510 44.74711
Si 991  -7.97190 43.34760 44.78795
Si 993  -7.64950 39.25790 44.52567
Si 994  -12.22455 43.87580 44.33341
Si 995  -11.79182 46.37809 44.22429
Si 997  -11.13487 48.85078 45.48547
Si 1000 -6.78070 35.78890 27.96811
Si 1003 -3.90840 31.72820 17.37400
Si 1006 6.75654 5.71672 7.05669
Si 1007 4.94182 6.94821 8.54948
Si 765  13.92370 13.57550 12.02480
Si 831  14.18330 14.71770 15.05900
Si 899  13.00250 13.75260 17.01410
Si 930  10.91810 13.66690 18.38610
Si 858  12.57310 10.63850 8.56169
Si 984  12.65680 8.28929 9.69544
Si 961  5.73104 8.28799 12.90900
Si 1002 4.12505 5.69007 13.44270
