75
Lattice="20.9419 0.0 0.0 0.0 20.9419 0.0 0.0 0.0 20.9419"
Si 675 1.77540 13.42470 5.68146
Si 699 3.40474 16.10560 5.04073
Si 730 3.08214 10.91700 5.86752
Si 735 -0.32100 13.96090 7.79013
Si 755 -3.04630 15.16890 7.18726
Si 760 -4.88960 13.51100 9.03789
Si 768 -3.97590 10.89350 8.89890
Si 780 4.98414 11.03980 7.82256
Si 821 5.33331 12.81860 4.61129
Si 836 4.30626 13.72130 1.94610
Si 851 5.63753 16.20630 1.28480
Si 906 4.48462 19.08670 1.18380
Si 912 7.97363 15.43930 0.03660
Si 914 8.18703 13.22700 2.09287
Si 923 8.30821 13.21600 -1.75900
Si 932 10.77310 16.11050 1.40670
Si 934 11.95660 13.62070 0.16940
Si 982 14.90560 13.43550 0.52700
Si 996 14.04790 15.67330 2.33770
Si 676 12.88270 4.05624 7.98975
Si 679 15.07150 4.96834 6.07306
Si 792 10.38530 5.34432 8.27673
Si 844 11.51440 8.08689 7.05125
Si 889 12.44590 8.33868 4.35875
Si 943 12.79990 4.33842 4.07407
Si 678 2.51159 19.69850 4.64738
Si 693 0.13270 17.98830 5.00136
Si 767 4.29786 22.01000 4.67886
Si 791 -0.81060 18.45360 7.74908
Si 885 -0.93550 20.43280 3.86309
Si 925 -2.96130 21.21860 5.49493
Si 681 7.61096 1.42620 6.21489
Si 682 6.88405 3.89518 4.58663
Si 683 0.65170 6.33167 16.67990
Si 782 2.23126 3.79138 16.94930
Si 686 10.42120 16.01070 14.33660
Si 727 10.70670 17.19460 11.94660
Si 771 12.17460 17.83540 16.24930
Si 775 15.19930 17.43600 15.58460
Si 779 12.08970 16.94290 19.30520
Si 784 14.79280 16.87070 19.76900
Si 838 15.82730 15.45380 17.53910
Si 947 18.13110 13.51640 18.06480
Si 952 18.70290 15.95660 19.42610
Si 973 19.22920 17.78490 17.44120
Si 983 17.99600 19.71340 19.19340
Si 723 2.95708 12.63670 19.82470
Si 742 4.69353 11.89760 17.45340
Si 904 2.46070 10.02020 20.67800
Si 945 4.49879 11.71500 14.62450
Si 729 10.91830 6.71891 19.04250
Si 757 10.74450 7.55117 21.85220
Si 808 11.88130 3.74999 20.07550
Si 974 14.66740 4.86248 20.85900
Si 733 13.74190 11.38100 18.34240
Si 978 11.17140 10.43310 19.19440
Si 762 16.95220 3.14338 13.01970
Si 805 19.25970 3.81538 14.30700
Si 911 20.61820 1.89600 12.49770
Si 772 13.17080 0.80460 11.54960
Si 908 13.50540 -0.89330 13.84200
Si 818 5.75779 2.86233 17.46880
Si 860 7.68644 0.55600 17.07930
Si 867 8.74164 1.48170 19.86950
Si 876 9.71239 1.40900 14.98250
Si 893 8.60041 4.57113 20.47020
Si 833 13.92350 10.92410 14.10550
Si 918 16.36880 12.43980 14.68510
Si 849 8.23907 19.76390 12.98690
Si 877 5.78840 21.30690 13.59130
Si 913 4.37739 19.53380 15.24660
Si 884 3.82305 12.37420 11.40310
Si 926 2.38174 10.04120 9.85926
Si 985 0.59250 7.59624 7.03059
Si 989 1.93520 6.55417 9.40966
