12
Lattice="24.616 0.0 0.0 0.0 24.616 0.0 0.0 0.0 24.616"
Si 927 15.1068 20.400099999999995 11.789099999999998
Si 944 15.346699999999998 19.8589 14.349499999999999
O 105 15.837499999999999 18.1881 15.041399999999996
O 184 16.691699999999997 20.5377 11.2639
O 291 16.668099999999995 20.684399999999997 14.900999999999996
O 309 14.462899999999998 19.1858 10.812100000000001
O 333 14.873599999999996 21.069000000000003 13.273499999999999
O 333 14.873599999999996 21.069000000000003 13.273499999999999
O 482 14.385400000000004 21.617400000000004 10.941600000000001
O 498 14.002600000000001 19.833200000000005 15.3153
O 617 15.537700000000001 19.0709 12.9546
O 617 15.537700000000001 19.0709 12.9546
