30
Lattice="21.0122 0.0 0.0 0.0 21.0122 0.0 0.0 0.0 21.0122"
Si 731 19.1854 10.7271 5.15822
Si 732 19.9578 10.6704 2.5247899999999994
Si 865 15.351199999999999 7.682649999999999 7.62087
Si 1000 20.607300000000002 11.019100000000002 7.866129999999998
Si 1007 17.6528 8.319229999999997 6.471119999999999
O 44 15.110099999999996 6.7396899999999995 9.03275
O 106 19.4581 9.394269999999999 4.025510000000001
O 106 19.4581 9.394269999999999 4.025510000000001
O 111 16.102600000000002 8.95064 6.8302499999999995
O 111 16.102600000000002 8.95064 6.8302499999999995
O 194 0.42139999999999844 10.615099999999998 3.203879999999998
O 210 18.6376 12.2408 5.75789
O 218 16.969 7.06907 7.62876
O 218 16.969 7.06907 7.62876
O 263 19.753700000000002 12.368000000000002 8.19227
O 301 20.4897 11.867899999999999 1.4251000000000005
O 405 1.0884 12.023400000000002 6.867380000000001
O 417 14.6186 6.605969999999999 6.60191
O 430 18.9242 10.071199999999997 1.3280999999999992
O 483 19.547800000000002 9.98875 8.699739999999998
O 514 20.3149 10.642499999999998 6.281109999999998
O 514 20.3149 10.642499999999998 6.281109999999998
O 522 0.6102999999999952 10.744500000000002 9.1693
O 526 17.9861 9.92444 5.93318
O 526 17.9861 9.92444 5.93318
O 547 19.112500000000004 11.5777 3.6149699999999996
O 547 19.112500000000004 11.5777 3.6149699999999996
O 592 19.188300000000005 7.937649999999998 6.836300000000001
O 653 17.4625 7.57085 5.039639999999999
O 665 13.980600000000003 8.654719999999998 7.832920000000001
