6
Lattice="21.0122 0.0 0.0 0.0 21.0122 0.0 0.0 0.0 21.0122"
Si 798 15.7271 2.6987699999999997 6.383700000000001
O 53 13.969000000000001 2.2408800000000006 6.61318
O 73 15.4377 2.478760000000001 4.755849999999999
O 120 15.3996 4.247410000000002 6.748850000000001
O 242 17.375499999999995 2.867650000000001 6.250790000000002
O 595 15.836399999999998 1.0716999999999999 6.908740000000002
