6
Lattice="21.0122 0.0 0.0 0.0 21.0122 0.0 0.0 0.0 21.0122"
Si 798 15.6188 2.720649999999999 6.321249999999999
O 53 13.9206 2.14762 6.438549999999999
O 73 15.566200000000002 2.4628900000000016 4.681940000000001
O 120 15.2789 4.23573 6.71518
O 242 17.280300000000004 2.8874899999999997 6.293289999999999
O 595 15.801899999999996 1.0088000000000008 6.8370999999999995
