6
Lattice="21.0122 0.0 0.0 0.0 21.0122 0.0 0.0 0.0 21.0122"
Si 999 9.627670000000002 19.846399999999996 15.082799999999999
O 219 8.612470000000002 20.402499999999996 13.793
O 297 8.414749999999998 18.9424 15.623399999999997
O 377 9.98103 0.3907999999999987 15.5775
O 457 10.4621 19.3812 16.7172
O 487 10.986800000000002 19.5479 14.3549
