6
Lattice="21.0122 0.0 0.0 0.0 21.0122 0.0 0.0 0.0 21.0122"
Si 853 20.7909 3.9596400000000003 10.7012
O 190 20.867399999999996 5.481670000000001 9.896900000000002
O 339 20.734699999999997 3.019780000000001 12.122399999999999
O 359 18.9824 3.9085800000000006 10.636200000000002
O 540 1.3276000000000039 4.439309999999999 11.406399999999998
O 575 0.15510000000000446 2.8034099999999995 9.616340000000001
