12
Lattice="21.0122 0.0 0.0 0.0 21.0122 0.0 0.0 0.0 21.0122"
Si 858 11.618699999999997 8.45955 10.3091
Si 984 11.5826 10.718800000000002 9.257480000000001
O 0 10.274900000000002 7.64481 10.723700000000001
O 31 12.7834 9.960160000000002 10.0807
O 31 12.7834 9.960160000000002 10.0807
O 72 12.559800000000003 7.2409099999999995 9.856259999999999
O 255 10.087800000000001 11.4225 8.69181
O 394 12.006999999999998 8.90466 11.821599999999997
O 530 12.300800000000002 11.873200000000004 8.483789999999999
O 538 11.047599999999996 9.158560000000001 8.88159
O 538 11.047599999999996 9.158560000000001 8.88159
O 626 10.935099999999998 11.006500000000003 10.8764
