12
Lattice="21.0122 0.0 0.0 0.0 21.0122 0.0 0.0 0.0 21.0122"
Si 688 3.7467000000000006 11.2731 1.372399999999999
Si 900 5.80245 10.702199999999998 19.993900000000004
O 10 4.973099999999999 11.025399999999998 18.5753
O 101 4.941029999999998 10.2988 2.0251400000000004
O 188 2.1053099999999993 11.524700000000003 0.5777000000000001
O 198 4.319649999999999 11.069000000000003 20.865699999999997
O 198 4.319649999999999 11.069000000000003 20.865699999999997
O 384 6.6441300000000005 12.078600000000002 20.4381
O 462 2.850290000000001 11.055300000000003 2.91019
O 473 7.172280000000001 10.0644 18.8268
O 494 4.207139999999999 12.781599999999997 1.661200000000001
O 591 5.88617 9.31372 20.8031
