12
Lattice="21.0122 0.0 0.0 0.0 21.0122 0.0 0.0 0.0 21.0122"
Si 688 3.676780000000001 11.241500000000002 1.4206000000000003
Si 900 5.5574200000000005 10.736 19.852200000000003
O 10 4.648679999999999 10.991300000000003 18.492799999999995
O 101 4.90493 10.209499999999998 2.0695300000000003
O 188 1.9814000000000007 11.522399999999998 0.4994000000000014
O 198 4.317589999999999 11.076999999999998 20.8917
O 198 4.317589999999999 11.076999999999998 20.8917
O 384 6.46791 11.991 20.366
O 462 2.72682 11.084400000000002 2.8649699999999996
O 473 6.88176 10.2092 18.670300000000005
O 494 4.183109999999999 12.697200000000002 1.7776999999999958
O 591 5.865500000000001 9.327489999999997 20.7556
