10
Lattice="20.9419 0.0 0.0 0.0 20.9419 0.0 0.0 0.0 20.9419"
Si 690 16.52860 10.40210 12.79530
Si 706 13.91450 10.44900 11.03100
Si 740 12.35780 8.81851 12.67560
Si 756 10.66790 11.87380 9.89300
Si 848 9.53735 10.48150 11.93100
Si 850 11.91370 12.84730 7.49604
Si 907 8.38150 7.63875 12.60360
Si 949 5.69485 5.92843 11.17270
Si 951 3.99434 3.78621 11.09080
Si 955 6.19059 4.23076 8.92329
