12
Lattice="23.3313 0.0 0.0 0.0 23.3313 0.0 0.0 0.0 23.3313"
Si 696 4.582720000000002 2.9966100000000004 15.705100000000002
Si 754 4.787579999999998 5.85952 15.911299999999997
O 50 4.333020000000001 4.2377 16.904200000000003
O 50 4.333020000000001 4.2377 16.904200000000003
O 102 3.3147699999999993 6.3904700000000005 16.4651
O 192 4.1668400000000005 2.54063 14.149799999999999
O 264 5.85511 6.537800000000001 16.888800000000003
O 281 4.786580000000001 6.8548100000000005 14.515900000000002
O 412 5.533239999999999 4.6200800000000015 15.037399999999998
O 412 5.533239999999999 4.6200800000000015 15.037399999999998
O 463 5.941659999999999 2.127189999999999 15.955300000000001
O 639 3.3877699999999997 1.99925 16.445099999999996
