6
Lattice="23.3313 0.0 0.0 0.0 23.3313 0.0 0.0 0.0 23.3313"
Si 707 9.545949999999998 20.775400000000005 17.9653
O 93 8.539569999999998 19.548500000000004 18.5659
O 201 10.804699999999997 19.757999999999996 17.510800000000003
O 204 8.057020000000001 21.9015 17.8245
O 389 9.718240000000002 21.561300000000003 16.366299999999995
O 548 10.271500000000003 21.585099999999997 19.2408
