6
Lattice="20.9419 0.0 0.0 0.0 20.9419 0.0 0.0 0.0 20.9419"
Si 794 5.406479999999998 1.6428000000000011 10.381899999999998
O 166 5.2054100000000005 2.4987999999999992 11.828099999999996
O 172 4.555759999999999 0.4498999999999995 9.67597
O 411 3.7851800000000004 2.54974 10.0516
O 549 6.30781 2.6563599999999994 9.544920000000001
O 556 6.634029999999999 0.6109000000000009 10.794999999999998
