6
Lattice="20.9419 0.0 0.0 0.0 20.9419 0.0 0.0 0.0 20.9419"
Si 961 4.033739999999998 5.717359999999999 13.524400000000004
O 306 2.5098200000000013 5.426729999999999 13.279799999999998
O 443 4.8024200000000015 4.972860000000001 12.2488
O 515 3.864460000000001 6.4783100000000005 15.086699999999997
O 535 4.536709999999999 7.1563300000000005 12.944100000000002
O 613 4.303360000000001 4.26351 14.487199999999998
