6
Lattice="20.9419 0.0 0.0 0.0 20.9419 0.0 0.0 0.0 20.9419"
Si 871 6.739630000000002 12.2214 13.007899999999996
O 80 6.394690000000001 13.807500000000001 12.709900000000001
O 400 5.921690000000002 11.539599999999997 14.262400000000003
O 585 7.595790000000001 11.2056 11.920199999999998
O 633 8.103539999999999 12.6435 13.815500000000004
O 648 5.388960000000001 11.833200000000001 11.851699999999997
