12
Lattice="20.9419 0.0 0.0 0.0 20.9419 0.0 0.0 0.0 20.9419"
Si 858 12.677499999999998 8.371970000000001 9.75506
Si 984 12.512400000000003 10.734300000000001 8.680119999999999
O 0 11.1891 7.741389999999999 10.215700000000002
O 31 13.807399999999998 10.0746 9.469179999999998
O 31 13.807399999999998 10.0746 9.469179999999998
O 72 13.622899999999998 7.158049999999999 9.34253
O 255 11.011500000000002 11.377500000000001 8.194100000000002
O 394 13.029 8.910619999999998 11.228199999999998
O 530 13.2302 11.9297 7.90793
O 538 12.157 9.072219999999998 8.36625
O 538 12.157 9.072219999999998 8.36625
O 626 11.933600000000002 11.072599999999998 10.2241
