12
Lattice="20.9419 0.0 0.0 0.0 20.9419 0.0 0.0 0.0 20.9419"
Si 858 12.641099999999998 8.250150000000001 9.758959999999998
Si 984 12.513299999999997 10.5898 8.675160000000002
O 0 11.242099999999997 7.48021 10.2303
O 31 13.821200000000001 9.88167 9.5171
O 31 13.821200000000001 9.88167 9.5171
O 72 13.6557 7.090589999999999 9.165299999999998
O 255 10.990100000000002 11.3445 8.277640000000002
O 394 12.968099999999996 8.71988 11.2529
O 530 13.276500000000002 11.8047 7.99549
O 538 12.132499999999997 8.959599999999998 8.31522
O 538 12.132499999999997 8.959599999999998 8.31522
O 626 11.907399999999999 10.7945 10.229299999999999
