6
Lattice="20.9419 0.0 0.0 0.0 20.9419 0.0 0.0 0.0 20.9419"
Si 761 17.7276 12.602499999999996 0.7864000000000004
O 20 17.873700000000003 11.264799999999997 20.610400000000002
O 113 19.2995 12.8779 0.6512999999999991
O 313 17.574299999999997 14.0823 1.5519999999999996
O 328 16.232699999999998 12.917400000000004 20.888899999999996
O 444 17.316599999999998 11.607099999999999 2.0056999999999974
