6
Lattice="20.9419 0.0 0.0 0.0 20.9419 0.0 0.0 0.0 20.9419"
Si 798 16.491199999999996 2.6641000000000012 5.802160000000001
O 53 14.841600000000003 2.3580000000000005 6.16328
O 73 16.348900000000004 2.5980099999999986 4.24175
O 120 16.2852 4.208949999999998 6.38843
O 242 18.2492 2.7696700000000014 5.81692
O 595 16.6568 1.0437000000000012 6.32658
