646
Lattice="21.3314 0.0 0.0 0.0 21.3314 0.0 0.0 0.0 21.3314"
O 0   0.42630 9.87797 6.57373
O 1   0.22560 8.12145 7.88653
O 2   0.39740 12.11850 6.37617
O 3   2.59884 10.54680 6.66675
O 4   0.29790 8.20443 5.03708
O 5   -0.15300 10.58820 4.24218
O 6   -2.01850 9.12833 6.04397
O 7   2.31316 8.02584 6.49627
O 8   1.92233 9.56446 4.40062
O 9   2.16876 9.48678 8.89510
O 10  0.17430 10.70630 9.41855
O 11  -1.56910 12.13190 10.45430
O 12  1.42350 12.47630 10.64770
O 13  -0.86890 9.19304 11.13330
O 14  -2.44780 10.13000 9.37065
O 15  2.26110 10.16630 11.06170
O 16  2.96364 11.72750 8.76642
O 17  4.21964 12.87370 6.95931
O 18  5.19892 10.73110 7.59509
O 19  3.04975 14.55420 8.58559
O 20  4.59925 13.94660 9.94251
O 22  5.94573 12.70960 8.68519
O 23  6.92551 14.56620 10.06640
O 24  4.35776 15.81110 11.45710
O 25  5.64165 13.62320 12.12160
O 26  5.00191 11.71480 11.14860
O 27  4.11887 16.59710 9.22580
O 28  3.20103 13.18000 12.23560
O 29  5.24871 15.06230 7.46140
O 30  2.10716 15.02790 10.81960
O 31  -0.56020 14.70460 10.79560
O 32  0.88380 13.70960 12.99510
O 33  1.80200 17.58070 12.45120
O 34  1.93347 18.35830 14.78760
O 35  3.38927 19.53600 11.95400
O 36  2.42747 18.14400 10.01900
O 37  0.78630 19.75560 11.34350
O 38  4.11111 17.56840 13.90470
O 39  0.03990 17.47450 9.97496
O 40  -2.00470 16.88960 11.12220
O 41  -1.39810 15.86160 8.73273
O 42  1.35280 16.38630 8.07907
O 43  0.65940 19.73840 8.88554
O 45  0.37790 18.26570 7.27388
O 46  2.65785 18.43440 7.78582
O 47  -1.73660 19.52290 7.61117
O 48  0.90360 20.60540 6.45435
O 49  0.87360 16.42810 5.57160
O 50  2.28054 18.39120 5.38556
O 51  3.06657 19.17100 3.29304
O 53  3.25742 20.66220 5.57650
O 54  3.26544 16.38090 6.66516
O 55  1.14300 20.57950 3.87804
O 56  -0.67630 20.02520 2.47233
O 57  -0.69840 22.10050 3.63039
O 58  1.45500 22.54340 5.23381
O 59  1.50490 22.54260 2.43483
O 60  -1.12550 20.37390 5.19536
O 61  1.18630 20.44380 1.13640
O 62  -0.58720 18.20950 4.27266
O 63  -2.84290 19.27080 3.35600
O 64  -1.93580 17.02100 1.87168
O 65  -3.17920 18.81880 0.81200
O 66  -3.53210 17.06460 3.90945
O 67  -2.27440 14.39160 1.97882
O 68  -3.06820 15.53790 -0.02420
O 69  -4.70380 17.30960 1.72780
O 70  -0.37880 15.27040 0.35260
O 71  -0.61190 13.51880 -1.41730
O 72  -0.25900 16.09550 -2.06090
O 73  1.68250 13.97010 -0.51330
O 74  1.28650 14.59900 -2.60750
O 75  3.84837 13.12400 -0.02110
O 76  2.66267 15.01850 1.42600
O 77  1.81040 12.42640 1.61320
O 78  3.93991 15.44250 -0.71070
O 79  2.63761 11.59340 -1.68260
O 80  3.68820 13.60480 -2.60390
O 81  5.69050 13.44510 -1.38170
O 82  4.61239 11.46630 -3.02670
O 83  3.16547 15.93500 -3.03500
O 84  5.18951 13.18150 -4.61840
O 85  2.29850 12.22260 -4.34680
O 86  3.22736 14.44790 -5.27040
O 87  5.42453 15.29400 -4.92120
O 88  4.54378 15.10720 -7.33650
O 89  0.73670 13.96810 -5.44870
O 90  4.31302 12.64600 -6.89720
O 91  3.94702 17.20210 -4.91490
O 92  1.12500 16.24670 -4.45610
O 93  1.45300 18.10020 -2.76320
O 94  -0.77190 18.08650 -3.30370
O 95  -0.38690 20.41850 -3.24560
O 96  0.07090 19.28720 -5.23410
O 97  -2.35280 17.95140 -5.34690
O 98  -2.20380 17.59150 -1.18530
O 99  -2.67190 16.13980 -3.33330
O 100 -2.58000 19.80180 -1.92190
O 101 -1.98460 20.81040 0.09940
O 102 -2.41020 22.17410 -2.84230
O 103 -2.87720 20.28690 -4.42540
O 105 -0.46900 19.07500 -0.29100
O 106 -5.02230 20.02830 -0.46380
O 107 -4.11110 18.16880 -3.72320
O 108 -5.10530 18.70520 -5.64690
O 109 -6.07090 17.05000 -3.57880
O 110 -5.65020 19.94160 -3.22490
O 111 -4.29780 15.72430 -4.76640
O 112 -4.62310 15.69740 -2.05240
O 113 -4.72150 17.64590 -0.64720
O 114 -5.59450 15.14440 0.35600
O 115 -5.09980 13.15460 -1.29930
O 116 -7.15800 14.86030 -3.06590
O 117 -5.24310 13.39720 -3.75030
O 118 -7.00460 12.20030 -2.56810
O 119 -6.24790 13.66580 -6.03890
O 121 -4.77040 11.49930 -5.60220
O 122 -3.46900 13.73010 -5.79420
O 123 -5.31080 10.63810 -3.36810
O 124 -7.29220 11.71690 -5.02590
O 125 -9.36440 12.27710 -6.34260
O 126 -7.14460 9.35772 -4.10490
O 127 -9.32170 10.11170 -4.86690
O 128 -7.02960 11.88410 -7.73790
O 129 -7.28460 9.58511 -6.94540
O 130 -9.55710 9.39244 -6.86960
O 131 -8.24710 7.60092 -5.64760
O 132 -5.78050 7.73390 -5.83950
O 133 -8.99980 10.66260 -8.82550
O 134 -6.71240 10.06430 -9.66110
O 135 -8.82570 8.18226 -9.09000
O 136 -9.36020 6.00084 -8.04210
O 137 -6.98090 6.96776 -10.24690
O 138 -11.21660 8.01842 -8.06960
O 139 -10.84460 9.70447 -9.78080
O 140 -7.05290 6.58595 -7.77910
O 141 -5.67840 5.12666 -6.35010
O 142 -8.26670 5.23847 -9.92680
O 143 -7.85550 4.02925 -6.67840
O 144 -6.61180 3.85082 -8.74230
O 145 -4.78140 5.50554 -9.46860
O 146 -3.78130 4.44750 -7.71240
O 147 -4.64560 3.06055 -10.24740
O 148 -4.85220 8.02831 -10.14350
O 149 -2.60060 6.93593 -9.94110
O 150 -3.97390 7.38896 -7.65950
O 151 -5.95190 6.13873 -12.06570
O 152 -4.73730 8.08853 -12.51713
O 153 -7.28080 4.07820 -11.52582
O 154 -7.20470 8.39994 -12.29000
O 155 -4.10790 6.23092 -13.99642
O 157 -7.68300 4.97460 -13.78831
O 158 -8.65030 6.53194 -11.97916
O 159 -5.50250 3.89751 -13.55597
O 160 -3.61680 4.62871 -12.17512
O 161 -6.48570 6.81275 -14.96108
O 162 -8.22310 7.05827 -16.67884
O 163 -8.80420 7.44475 -14.25717
O 164 -6.68880 9.39493 -14.68505
O 165 -7.65450 4.84685 -16.23780
O 166 -4.42600 8.43379 -15.14574
O 167 -6.17730 8.53339 -17.07538
O 168 -5.10760 4.65460 -16.14344
O 169 -6.28050 2.94654 -17.41632
O 170 -4.32080 2.52963 -15.22969
O 172 -3.26690 4.09556 -17.78401
O 173 -2.48370 4.46572 -15.53855
O 174 -6.81860 2.70839 -15.10191
O 175 -6.65780 2.02520 -12.84139
O 176 -5.50970 0.65630 -14.78981
O 177 -8.87060 2.92201 -13.36628
O 178 -10.84150 2.93942 -14.78599
O 179 -10.39750 1.14950 -12.55440
O 180 -9.53620 3.04274 -10.71810
O 181 -8.35500 0.14210 -14.18309
O 182 -6.55470 -1.42590 -13.78327
O 183 -8.16800 0.04970 -11.71048
O 184 -7.08450 -0.94600 -16.26687
O 185 -10.08850 -1.49380 -12.71929
O 186 -11.11220 0.27290 -15.43314
O 187 -9.24640 0.32910 -17.14087
O 188 -11.96937 0.36470 -17.81450
O 189 -13.56681 0.74710 -15.01559
O 190 -12.96859 -1.64850 -15.16195
O 191 -10.97020 -1.86280 -17.13445
O 192 -12.29705 -0.30600 -13.00348
O 193 -10.63160 2.52921 -17.21565
O 194 -9.20520 4.32238 -18.03578
O 195 -11.60904 4.10749 -18.84791
O 196 -13.02423 2.79545 -16.45373
O 197 -10.15060 1.95734 -19.65140
O 198 -11.70959 4.89724 -16.38216
O 199 -9.73240 5.58262 -15.30266
O 200 -13.08067 4.65715 -14.14359
O 201 -13.25410 6.24600 -18.10205
O 202 -9.95910 6.52109 -17.69650
O 203 -11.50493 7.57165 -15.70732
O 204 -14.43993 5.56422 -16.17546
O 205 -13.94144 7.79802 -15.25546
O 206 -15.49550 7.31622 -17.63104
O 207 -15.57993 5.21803 -13.76101
O 209 -15.02992 3.13026 -15.14424
O 210 -17.18949 5.81715 -15.40582
O 211 -17.48777 6.83221 -13.44677
O 212 -18.61380 4.54865 -14.07447
O 214 -17.85474 7.70613 -16.78174
O 215 -17.33602 3.45511 -15.99636
O 216 -19.54460 5.94183 -16.29118
O 217 -17.90214 5.09749 -17.84449
O 218 -16.30307 8.40021 -15.06558
O 220 -14.96586 8.43581 -12.92430
O 221 -14.22112 10.25230 -14.96734
O 222 -16.32121 9.58295 -17.80700
O 223 -14.21480 10.74940 -17.78693
O 224 -16.49620 11.47430 -16.31177
O 225 -16.59886 11.57280 -19.22222
O 226 -17.02560 7.92810 -19.58230
O 227 -15.00554 9.61267 -20.39680
O 228 -14.62743 7.32834 -20.89020
O 229 -16.16041 11.14920 -21.96200
O 230 -12.76836 8.91604 -19.57400
O 231 -12.99103 10.33100 -21.69910
O 232 -14.29097 12.08250 -20.34490
O 233 -14.05249 8.64764 -22.90250
O 234 -14.23967 6.52870 -23.93580
O 235 -12.93118 10.33400 -24.26140
O 237 -11.82963 7.96552 -24.13620
O 238 -15.43606 9.47277 -25.17040
O 239 -16.18590 7.33634 -24.38690
O 240 -13.65632 8.06827 -25.80580
O 241 -11.53368 9.00738 -26.49160
O 242 -15.65243 7.57646 -27.09460
O 243 -13.65925 8.33567 -28.37390
O 244 -12.35711 5.87980 -25.36570
O 245 -13.54539 10.40400 -27.06500
O 246 -14.81432 5.31666 -25.96270
O 247 -14.10700 3.09021 -26.04120
O 248 -14.74353 5.57315 -28.44880
O 249 -17.19345 5.41725 -24.94590
O 250 -16.18099 3.76650 -27.52570
O 251 -12.86646 4.43062 -27.45320
O 252 -15.53675 4.65319 -23.41360
O 253 -12.89180 4.18917 -23.97550
O 254 -11.46526 3.35636 -25.59850
O 255 -12.15524 6.03100 -22.44440
O 256 -11.97240 3.10889 -21.76290
O 257 -12.02027 1.64270 -23.78020
O 258 -10.17500 3.61165 -23.21220
O 259 -8.34300 2.52617 -22.05810
O 260 -9.27540 5.59144 -24.58750
O 261 -9.83690 5.96747 -22.21850
O 262 -7.87580 4.99560 -22.74480
O 264 -9.35580 3.89338 -20.55840
O 265 -8.77080 3.11736 -25.85380
O 266 -6.57290 3.63563 -24.96560
O 267 -10.19010 4.34224 -27.56720
O 268 -10.23730 1.71190 -27.41820
O 269 -7.73080 1.27540 -24.16290
O 270 -7.63570 5.55450 -26.29980
O 271 -6.30390 2.62049 -27.10430
O 272 -5.15260 2.47952 -29.16820
O 273 -7.74890 1.56250 -28.76620
O 274 -3.99680 3.51690 -26.52600
O 275 -5.35180 1.51990 -24.88650
O 276 -4.04200 0.90840 -26.83400
O 277 -2.88420 0.49240 -28.98400
O 278 -3.25820 -1.43430 -27.91770
O 279 -1.28950 0.45200 -26.90640
O 280 0.34740 1.71580 -28.28450
O 281 -0.46140 2.62290 -25.76970
O 282 -1.65680 3.08588 -27.74050
O 283 1.45350 0.83640 -26.20780
O 284 2.07570 -1.47100 -25.20060
O 285 3.13328 -0.49610 -27.81920
O 286 3.01187 0.82300 -23.85790
O 287 3.27090 1.89749 -28.12240
O 288 3.07266 4.02210 -29.27400
O 289 5.58654 0.88710 -28.07400
O 290 1.79800 0.65170 -29.93640
O 291 2.75030 4.16932 -26.77210
O 292 4.24985 0.42830 -30.28000
O 293 4.14210 2.59072 -25.33650
O 294 5.29917 1.98244 -23.30900
O 295 3.62575 3.74683 -23.21990
O 296 1.80020 4.65201 -24.77360
O 297 5.30718 3.47010 -21.12100
O 298 1.65440 5.40108 -22.29540
O 299 0.96160 2.43014 -23.16000
O 300 -1.32640 2.50389 -22.53790
O 301 2.40574 1.38650 -21.38000
O 302 0.36450 0.08380 -22.44840
O 303 -0.30360 4.69929 -23.43420
O 304 -0.04520 3.87425 -20.87370
O 305 0.84560 4.65689 -18.68695
O 306 -2.05880 4.87590 -19.68350
O 307 -0.31440 6.54291 -20.00730
O 308 -2.16630 2.47539 -19.41793
O 309 -3.20900 0.27100 -19.13557
O 310 -0.55670 0.73560 -20.17300
O 311 -4.69310 2.94185 -19.35028
O 312 -0.65280 3.16770 -17.42654
O 313 -3.27250 1.36560 -21.59540
O 314 -3.03520 1.72600 -16.80750
O 315 -3.98510 3.96303 -21.31030
O 316 -4.75830 5.53929 -19.55640
O 317 -2.51470 5.38343 -22.78890
O 318 -5.73430 2.67512 -22.61570
O 319 -3.35730 3.13759 -23.66440
O 320 -6.53320 4.00814 -20.51230
O 321 -4.90520 5.29092 -23.54520
O 322 -5.48590 6.47654 -21.45910
O 323 -5.67250 8.07669 -19.69460
O 324 -7.72530 6.57981 -20.59330
O 325 -3.26020 7.52299 -21.23240
O 326 -4.55470 7.78449 -23.64450
O 327 -7.00020 6.95854 -23.90720
O 328 -8.95700 7.78380 -24.60520
O 329 -8.37280 7.94496 -22.36680
O 330 -6.23430 9.23505 -22.96970
O 331 -8.32770 10.17150 -23.47760
O 332 -3.93870 9.85158 -22.13520
O 333 -7.89430 9.69206 -20.61640
O 334 -8.05390 8.22428 -18.83918
O 335 -7.28000 10.59230 -18.34400
O 336 -10.50850 10.28080 -20.43580
O 337 -6.82520 12.20990 -20.56740
O 338 -10.00580 7.80625 -20.62880
O 339 -9.15440 11.97660 -19.39175
O 340 -10.88940 13.31170 -18.79866
O 341 -9.78440 11.81610 -17.02722
O 342 -7.68090 13.53670 -18.07291
O 343 -9.17660 12.18930 -22.04850
O 344 -8.98290 14.55700 -20.46000
O 345 -11.61019 12.49020 -20.99840
O 346 -12.00767 11.07520 -18.81431
O 347 -11.85750 10.02330 -16.40780
O 348 -10.56150 8.83454 -18.42645
O 349 -12.42159 13.02730 -16.70505
O 350 -13.46588 14.89720 -15.37864
O 352 -12.27013 15.50100 -17.40310
O 353 -13.38071 14.05250 -18.97589
O 354 -11.26720 13.85140 -14.33857
O 356 -12.86535 12.26360 -14.03403
O 357 -14.74621 12.80220 -15.12248
O 358 -15.24793 12.94880 -17.48049
O 359 -9.75810 14.40850 -17.15226
O 360 -9.60650 15.63360 -14.94232
O 361 -10.12910 17.02820 -17.20734
O 362 -7.82510 16.36090 -16.44110
O 363 -8.39860 13.59810 -14.73533
O 364 -9.86500 12.90870 -12.91823
O 365 -7.69390 11.51950 -13.62538
O 366 -6.45940 14.54300 -15.97497
O 367 -6.93840 11.81090 -16.10847
O 368 -7.29580 15.99410 -14.03178
O 369 -9.22180 15.26540 -12.71777
O 370 -5.78330 13.18110 -13.97501
O 371 -10.16460 11.17800 -14.57699
O 372 -8.80560 9.68099 -13.19857
O 373 -11.38648 11.07190 -12.38813
O 374 -9.33430 9.26873 -16.43934
O 375 -12.26923 9.31528 -13.97123
O 376 -12.67733 8.71961 -11.50631
O 377 -13.88774 10.71210 -12.52971
O 378 -10.37620 8.29938 -12.12982
O 379 -14.13198 12.07650 -10.33490
O 380 -14.98593 9.44000 -10.18040
O 381 -13.57251 10.21010 -8.60360
O 382 -16.99610 9.09930 -11.42108
O 383 -15.59140 7.86030 -8.31740
O 384 -15.90240 7.07159 -11.13980
O 385 -13.23764 7.43626 -9.44000
O 386 -15.53790 11.42040 -8.15070
O 387 -15.64208 9.80496 -6.50610
O 388 -17.86614 10.84320 -8.07560
O 389 -12.98582 12.52560 -7.30850
O 390 -14.78305 13.81160 -6.40600
O 391 -11.45488 10.62530 -7.24040
O 392 -11.38816 13.68050 -5.74070
O 393 -12.68695 15.36430 -7.26690
O 394 -10.56420 14.15690 -7.85180
O 395 -13.78002 12.51370 -4.44540
O 396 -13.27882 14.81400 -5.02160
O 397 -14.23112 14.52920 -3.04810
O 398 -11.64801 13.48560 -3.46200
O 399 -11.45794 11.41410 -4.86120
O 401 -9.69570 12.04440 -3.14560
O 402 -9.38150 13.91790 -4.71400
O 403 -10.78520 10.09780 -1.72840
O 404 -9.99880 15.79410 -6.27280
O 406 -8.21450 14.04670 -7.01370
O 407 -7.43150 16.02990 -8.04550
O 408 -7.11780 16.03960 -5.50230
O 409 -5.33850 15.52660 -7.28330
O 410 -8.68950 16.96430 -3.57500
O 411 -7.41370 18.81650 -4.70480
O 412 -9.47420 18.87390 -5.57330
O 413 -8.90250 19.86200 -3.10630
O 414 -7.46090 18.75440 -7.22550
O 415 -6.49020 20.57370 -6.32000
O 416 -8.41450 21.20020 -4.99720
O 418 -7.00970 18.67080 -1.75660
O 419 -6.64330 18.48800 0.68750
O 420 -7.06220 21.14650 -1.21270
O 421 -8.87670 19.39810 -0.08370
O 422 -10.24290 19.88700 2.02796
O 423 -8.77570 21.95660 0.41820
O 424 -7.82690 20.58510 2.21618
O 425 -9.49400 17.32870 1.81020
O 426 -7.30870 16.19000 2.04502
O 427 -11.79424 18.12540 2.48615
O 428 -8.57900 18.95640 3.81616
O 429 -11.71925 16.09360 0.54890
O 430 -10.79150 17.01440 -1.57990
O 431 -12.51022 15.02540 -1.66690
O 432 -13.90168 17.23010 1.36880
O 433 -12.20270 18.68350 0.11850
O 434 -10.05090 14.60040 -1.26500
O 435 -7.27430 13.96330 -0.84540
O 436 -12.75608 20.54990 1.48010
O 437 -11.69032 20.24830 -1.93700
O 438 -13.90311 20.68950 -0.96480
O 439 -14.86434 17.91000 -0.78470
O 440 -13.11595 17.32060 -2.52000
O 441 -16.69904 17.14090 0.81510
O 442 -15.50621 19.33940 1.27310
O 444 -15.64889 16.77160 -2.97740
O 445 -14.74460 19.03970 -3.24280
O 446 -14.72532 15.13520 -0.38110
O 447 -17.77075 17.86370 -1.46010
O 448 -18.95808 19.90830 -1.13620
O 449 -17.04489 19.69330 -2.94620
O 450 -19.06897 17.97970 0.65420
O 451 -17.59603 19.99850 1.16400
O 452 -17.15394 22.35050 1.52780
O 453 -16.39094 20.79820 3.21726
O 454 -16.18080 21.19580 -0.55450
O 455 -14.91108 21.75770 1.68290
O 456 -15.41733 21.50660 -3.06090
O 457 -14.04399 22.98170 -0.59510
O 458 -11.80210 21.76700 -0.11480
O 459 -12.89940 23.19316 1.80650
O 460 -14.50111 22.42890 3.83105
O 461 -15.84375 22.30090 5.72875
O 462 -15.67292 24.26620 2.65448
O 463 -13.50724 19.86030 3.67219
O 464 -13.80744 17.54400 4.69674
O 465 -15.44590 19.73430 5.69156
O 466 -15.92822 18.22050 3.28095
O 467 -15.99282 16.85450 5.50162
O 468 -15.17829 15.56170 3.51130
O 469 -16.00921 14.21130 1.49320
O 470 -17.26024 13.87820 4.68981
O 471 -19.31654 14.12340 6.32833
O 472 -19.26492 12.07600 4.59632
O 473 -20.77260 13.71770 8.30240
O 474 -16.16865 18.00100 7.74900
O 475 -14.01488 17.22760 7.41168
O 476 -12.73378 18.59990 8.54771
O 477 -11.95104 16.92440 6.21655
O 478 -12.35029 15.91760 8.83630
O 479 -14.76102 17.89160 9.83251
O 480 -15.56635 18.34130 11.95670
O 481 -13.10112 16.59720 10.94270
O 482 -14.75769 20.04470 8.52700
O 483 -13.23170 19.32500 11.35130
O 484 -17.03530 19.61240 9.45276
O 485 -16.83853 21.11910 7.69384
O 486 -15.61162 20.75990 10.98380
O 487 -16.23782 22.40680 9.64942
O 488 -16.35666 23.92457 11.39650
O 489 -18.32506 23.78387 9.84674
O 490 -15.03460 24.66670 9.56994
O 491 -16.79943 24.26982 7.92331
O 492 -13.59606 22.37850 10.16610
O 493 -11.68379 23.38342 10.88060
O 494 -14.53651 22.61820 12.47300
O 495 -11.60523 20.87970 10.44760
O 496 -12.32598 23.61986 8.38353
O 497 -12.47150 21.70480 12.54320
O 498 -13.49797 24.75355 11.79250
O 499 -14.14567 24.40315 14.05680
O 500 -11.55989 24.28959 13.14450
O 501 -15.37652 26.34434 11.47910
O 502 -12.15290 26.65989 12.92580
O 503 -13.30659 26.39586 9.75557
O 504 -17.86804 27.08371 11.57620
O 505 -17.14149 26.10740 9.41222
O 506 -19.12101 28.61902 9.87472
O 507 -18.20519 29.64446 11.98590
O 508 -17.30128 27.50749 14.10080
O 509 -19.79380 27.46524 13.50120
O 510 -20.44630 26.14140 10.78850
O 511 -20.76760 28.37767 11.61040
O 512 -22.72430 25.37030 10.36570
O 513 -21.03600 24.10125 12.00710
O 514 -20.46620 27.07442 8.47782
O 515 -22.34710 26.22704 12.78740
O 516 -21.98080 28.23901 9.81618
O 517 -20.45800 24.37306 8.37293
O 518 -21.07230 25.56478 6.13903
O 519 -19.34120 21.99500 8.12064
O 520 -20.59100 22.25050 10.21200
O 521 -23.25140 23.95177 8.03698
O 524 -22.16970 22.57130 6.17445
O 525 -25.65640 23.25098 8.58451
O 526 -22.73390 26.50226 8.09132
O 527 -22.10510 21.49360 8.38931
O 528 -24.04410 22.90470 10.46970
O 529 -24.40130 21.59580 6.91892
O 530 -25.23830 20.47310 9.03436
O 532 -25.46010 20.84310 4.68381
O 534 -25.57050 19.05430 6.93251
O 535 -27.74140 17.90570 6.13598
O 536 -27.19990 17.93020 8.87377
O 537 -26.18610 16.24220 6.12950
O 538 -24.76050 17.02060 8.99078
O 539 -25.35410 18.76570 10.86620
O 540 -25.62420 16.30380 11.67930
O 541 -24.52280 14.70770 13.26280
O 542 -26.73550 14.00210 11.89550
O 543 -24.50120 17.24560 13.78610
O 544 -24.27740 14.22690 10.76550
O 545 -26.98590 17.83780 13.36360
O 546 -28.28130 17.55650 11.34730
O 547 -26.72830 14.57820 9.50383
O 548 -28.97290 14.90640 10.56380
O 549 -31.38540 14.48890 10.97530
O 550 -31.04190 16.85780 10.51820
O 551 -32.39530 18.58700 10.35390
O 552 -29.98530 19.02440 10.45170
O 553 -29.55270 17.70710 8.75497
O 554 -30.39100 17.77580 12.73530
O 555 -32.53810 16.64570 12.63360
O 556 -31.81360 17.45520 8.09629
O 557 -30.05330 18.03110 6.31924
O 558 -33.06128 17.59320 14.84610
O 559 -34.77579 17.60470 13.08390
O 561 -33.74790 14.60260 11.67110
O 562 -32.25900 19.36090 12.58650
O 563 -30.45590 20.82240 14.31600
O 564 -34.71567 19.85760 14.15130
O 565 -34.25143 18.87590 16.13440
O 566 -34.52821 22.14910 14.99100
O 567 -36.07157 20.63820 16.07120
O 568 -32.62070 20.45350 15.42690
O 569 -37.44182 20.03620 13.75710
O 570 -36.19745 17.61120 15.21850
O 571 -37.87350 19.37800 16.03960
O 573 -31.65620 21.80920 17.24970
O 574 -34.07847 21.08790 17.35950
O 575 -32.10000 18.44180 17.47110
O 576 -32.93588 16.03510 17.50920
O 577 -30.96290 21.86850 19.40240
O 578 -31.16660 22.28790 12.31930
O 579 -28.87360 20.98830 12.21690
O 580 -28.87200 23.27903 11.21840
O 581 -27.57730 19.84100 10.41150
O 582 -26.32910 20.11090 13.10380
O 583 -26.74710 21.95940 10.52760
O 584 -24.84230 21.09020 11.56740
O 585 -23.37510 19.50000 12.74520
O 586 -22.55060 20.27620 10.56710
O 587 -22.20980 21.87250 12.35590
O 588 -21.17660 20.02880 13.63520
O 589 -23.62610 24.10184 12.65360
O 590 -30.53650 24.75525 12.74120
O 591 -33.58401 13.58440 9.38977
O 592 -35.91697 15.63270 12.65810
O 593 -32.23900 12.29190 11.69180
O 594 -30.42440 11.12430 9.94902
O 595 -22.76000 13.33260 12.72810
O 596 -22.57010 12.71590 14.87670
O 597 -21.54600 11.21410 12.63850
O 598 -24.86980 12.24480 13.50570
O 599 -23.78260 10.06830 12.72760
O 600 -22.22170 9.79643 14.70190
O 601 -22.37500 7.87930 13.06620
O 602 -20.41230 9.02086 13.08240
O 603 -20.68700 7.61741 14.99790
O 604 -22.93170 7.66756 15.73210
O 605 -22.26010 9.26605 17.37130
O 606 -23.44070 7.09314 18.02440
O 607 -25.17450 9.20851 15.82040
O 608 -25.26820 6.13997 16.33610
O 609 -20.93930 6.35735 17.44830
O 610 -21.65680 6.91151 19.64310
O 611 -18.76863 6.75404 16.36740
O 612 -21.06220 4.72604 15.55310
O 613 -18.94628 6.91145 18.87660
O 614 -23.05910 4.97426 17.25460
O 615 -17.20732 6.79437 20.86160
O 616 -17.76263 9.37868 19.17160
O 617 -19.94500 7.86818 21.29880
O 618 -17.80367 8.59140 16.91440
O 619 -20.45160 9.36388 19.52880
O 620 -23.04010 8.88541 19.89320
O 621 -21.22170 11.34190 21.19930
O 622 -19.02357 10.31280 21.65150
O 623 -22.08250 8.68127 21.82320
O 624 -20.45070 9.64673 23.41370
O 625 -24.11740 9.84159 22.64050
O 626 -22.29780 8.35802 24.36569
O 627 -19.97900 7.64803 24.36530
O 628 -24.35400 9.44915 25.20611
O 629 -24.80680 7.36942 23.84180
O 631 -23.96390 6.85989 26.10941
O 632 -21.95900 5.61682 25.58031
O 633 -22.09790 6.72335 27.78533
O 634 -23.56310 7.64123 29.34553
O 635 -26.09340 10.68310 26.24390
O 636 -23.60580 11.42890 26.41612
O 637 -26.48050 10.24400 23.94438
O 638 -24.17820 11.80050 24.10147
O 639 -21.85100 11.61670 23.52306
O 640 -23.66230 12.58580 21.57740
O 641 -25.96470 13.15950 22.55120
O 642 -22.20730 13.22610 25.37372
O 643 -26.73850 12.67410 24.95574
O 644 -26.83460 15.25740 24.54096
O 645 -27.64580 17.80910 25.04218
O 646 -26.28950 19.66590 23.42181
O 647 -26.90410 21.97130 24.53732
O 648 -27.45020 22.85670 22.18130
O 649 -29.12930 23.56813 23.65660
O 650 -23.07910 11.54310 19.24190
O 651 -24.13300 11.52580 16.97120
O 652 -24.72870 9.56483 18.11270
O 653 -23.46170 13.86310 17.60460
O 654 -23.16860 15.56000 15.48010
O 655 -24.97350 10.66770 28.42460
O 656 -18.80822 5.95929 22.58240
O 657 -18.44446 3.35310 22.94420
O 658 -17.56812 1.62370 25.10676
O 659 -18.06548 1.58390 27.66368
O 660 -19.40005 3.63651 25.86943
O 661 -17.27338 10.86950 16.17870
O 662 -20.12710 9.30230 16.33810
O 663 -18.30212 8.77504 14.42700
O 664 -20.25800 11.83450 14.68380
O 665 -13.48293 12.67710 -1.26220
O 666 -6.00500 10.45010 -12.17140
O 667 -13.25024 8.49682 -17.18949
O 668 -11.70580 6.25725 -20.05190
O 669 -7.08560 5.62165 -18.55523
O 671 -10.51100 6.83311 -26.38720
