43
Lattice="21.3314 0.0 0.0 0.0 21.3314 0.0 0.0 0.0 21.3314"
Si 684  11.63100 18.29520 9.38858
Si 800  12.45900 16.76080 7.45539
Si 692  2.80498 14.75860 19.54800
Si 703  1.23050 16.45710 18.54460
Si 714  0.33160 14.83580 20.25700
Si 892  4.28203 12.18440 19.77980
Si 694  7.57718 8.78131 0.23660
Si 763  9.01320 9.29356 -1.71550
Si 712  8.49861 4.20650 16.85580
Si 718  6.71931 4.32018 15.27070
Si 720  11.24650 18.27900 3.13571
Si 801  9.33489 19.85930 2.88533
Si 843  7.91474 21.83260 2.60395
Si 998  5.26548 22.52950 2.94505
Si 1001 5.07909 20.93780 1.04930
Si 721  1.01990 5.86784 18.99370
Si 824  -1.38840 5.83371 18.78260
Si 736  4.76381 14.10630 15.24710
Si 756  6.64947 14.00540 16.66930
Si 793  4.50251 12.34630 12.61190
Si 862  6.01887 13.15180 10.33800
Si 949  6.78179 11.60280 7.53113
Si 749  13.13160 6.09870 6.35444
Si 774  13.96290 3.48999 8.10584
Si 924  15.86210 2.25961 7.36811
Si 1003 13.27320 3.55780 11.30300
Si 752  8.19908 20.70430 15.78950
Si 772  5.60433 20.10980 17.40440
Si 999  5.05037 20.87590 15.22940
Si 764  0.03560 0.22680 5.04634
Si 879  0.42210 -0.03210 2.41827
Si 778  13.67470 8.71510 18.89150
Si 966  12.69460 6.41747 19.31160
Si 783  0.45640 4.39014 4.39293
Si 785  3.14175 4.82619 5.02890
Si 795  1.90816 7.64365 4.71508
Si 872  0.46710 9.16414 3.64239
Si 936  1.17910 10.96140 5.44279
Si 956  0.30270 7.99624 1.60070
Si 826  1.16190 17.97770 8.82592
Si 929  1.88868 17.32460 6.55641
Si 833  11.54700 14.06710 14.99750
Si 852  10.82370 12.74590 16.92330
