6
Lattice="21.3314 0.0 0.0 0.0 21.3314 0.0 0.0 0.0 21.3314"
Si 973 4.32958 15.929199999999998 17.437500000000004
O 46 5.452180000000002 16.560800000000004 18.430899999999998
O 86 3.203669999999999 14.5656 16.1818
O 88 3.8827999999999996 17.1255 16.4954
O 476 5.399280000000001 15.1675 16.4117
O 542 2.977529999999998 15.844600000000003 18.423999999999996
