6
Lattice="21.3314 0.0 0.0 0.0 21.3314 0.0 0.0 0.0 21.3314"
Si 802 8.051289999999998 3.9733300000000007 13.671400000000002
O 66 8.90783 5.23461 13.079200000000004
O 413 7.577650000000002 3.290029999999998 11.775499999999997
O 480 8.212779999999999 4.3281600000000005 15.348299999999998
O 610 6.647600000000001 3.1706000000000003 14.206500000000002
O 666 8.910999999999998 2.6133099999999985 13.4089
