12
Lattice="21.3314 0.0 0.0 0.0 21.3314 0.0 0.0 0.0 21.3314"
Si 688 19.976500000000005 11.813500000000001 3.662189999999999
Si 900 0.8484000000000052 11.124500000000001 1.2809999999999988
O 10 21.261 11.347399999999997 21.1865
O 101 21.016499999999997 10.675500000000003 4.32902
O 188 18.3822 11.8353 2.7395500000000013
O 198 20.730499999999996 11.675 2.185480000000002
O 198 20.730499999999996 11.675 2.185480000000002
O 384 1.644200000000005 12.567899999999998 1.5959000000000003
O 462 18.867300000000004 11.619899999999998 5.081800000000001
O 473 2.228719999999999 10.426100000000002 0.40570000000000306
O 494 20.4684 13.265800000000002 4.090720000000001
O 591 0.6422000000000025 9.64491 2.1373999999999995
