744
Lattice="21.3314 0.0 0.0 0.0 21.3314 0.0 0.0 0.0 21.3314"
Si 672 1.4185000000000016 5.3830300000000015 16.460600000000003
Si 674 17.531300000000005 3.6855900000000013 5.032640000000001
Si 679 6.232530000000001 8.96284 6.920020000000001
Si 680 18.8805 1.1071999999999989 12.123300000000004
Si 687 16.6797 20.3708 10.549600000000002
Si 690 4.05855 10.7073 14.753699999999998
Si 691 1.5471999999999966 9.158260000000002 7.46613
Si 698 5.269639999999999 1.127600000000001 11.330900000000003
Si 705 14.706199999999999 15.836699999999997 5.953050000000001
Si 706 0.5333000000000041 7.474209999999999 13.423199999999998
Si 707 9.01387 17.2169 7.7727900000000005
Si 709 13.6405 18.0799 4.919090000000001
Si 711 20.5866 20.0746 12.167100000000001
Si 715 9.690349999999999 12.701600000000003 8.257760000000001
Si 716 17.228799999999996 0.919000000000004 5.767700000000001
Si 724 6.659589999999998 8.18421 18.2516
Si 725 6.70177 18.468499999999995 8.35456
Si 728 12.982600000000001 5.632619999999999 3.8939400000000006
Si 731 14.058400000000002 9.98762 8.11644
Si 732 15.340399999999999 11.173599999999997 4.090920000000001
Si 734 3.663029999999999 15.248999999999999 10.091899999999999
Si 737 20.1827 7.5851299999999995 11.380399999999998
Si 739 8.92323 20.34 20.9918
Si 740 2.2927600000000012 8.406859999999998 15.805600000000002
Si 743 10.517 11.839299999999998 1.6040000000000063
Si 747 5.038999999999998 12.982600000000001 5.373459999999998
Si 750 13.151799999999998 6.72681 12.330500000000004
Si 751 10.279799999999998 6.71979 21.2212
Si 753 12.234300000000001 18.6028 17.3805
Si 754 4.696839999999998 2.4489400000000003 6.45767
Si 759 21.0928 20.680399999999995 0.1769999999999996
Si 761 11.868100000000002 13.109600000000004 3.3420799999999993
Si 762 14.008500000000002 3.9224500000000013 16.2794
Si 766 17.924899999999997 20.304400000000005 13.1482
Si 767 14.133300000000002 18.567799999999995 9.964760000000002
Si 770 5.149149999999999 20.8015 9.28321
Si 773 17.232400000000002 4.932109999999998 15.2167
Si 787 11.122600000000002 3.321369999999998 2.745070000000002
Si 789 14.787200000000002 5.687999999999999 1.311799999999998
Si 790 21.325099999999996 20.8606 9.842000000000002
Si 796 12.949099999999998 8.115480000000002 0.7201000000000022
Si 797 12.264500000000002 6.543939999999999 16.8796
Si 799 12.398700000000002 0.3078000000000003 18.0022
Si 802 8.49803 3.9615599999999986 13.694399999999998
Si 805 14.673199999999998 2.839839999999999 13.969799999999996
Si 806 18.9866 0.7447000000000017 1.0711000000000013
Si 807 5.41384 11.169799999999999 3.634360000000001
Si 809 3.7533600000000007 18.137800000000002 8.91095
Si 810 18.548999999999996 14.9025 16.745499999999996
Si 814 8.04618 13.4755 6.20091
Si 815 11.0397 8.882949999999997 12.920999999999996
Si 817 13.0902 1.030700000000003 20.1968
Si 819 10.166700000000002 18.9342 15.874199999999998
Si 820 15.4558 19.243 14.357600000000001
Si 823 16.904500000000002 7.11505 1.2691000000000017
Si 825 6.267479999999999 0.5478000000000023 19.981600000000004
Si 828 13.0765 9.153560000000002 15.614999999999998
Si 829 10.110200000000003 8.96584 1.3622000000000014
Si 837 16.489899999999995 9.395210000000002 19.1082
Si 841 14.727300000000003 9.111439999999998 2.756309999999999
Si 842 0.8941000000000017 6.42314 10.1995
Si 846 3.804400000000001 12.326399999999996 17.5264
Si 853 16.4246 3.8950700000000005 12.3963
Si 854 8.09889 1.6369000000000042 11.6741
Si 856 14.302299999999999 0.31450000000000244 10.740399999999998
Si 861 4.793319999999998 16.5305 7.05818
Si 864 21.231399999999997 8.40214 20.4081
Si 868 6.990179999999999 1.75 5.4104199999999985
Si 869 4.6965499999999984 13.7501 8.27347
Si 873 12.018400000000003 8.111140000000002 3.805209999999999
Si 876 4.348980000000001 1.166800000000002 18.250599999999995
Si 878 20.154299999999996 3.9501500000000007 16.1148
Si 880 20.7017 8.363620000000001 6.43967
Si 881 14.456700000000001 6.550430000000002 15.239499999999996
Si 882 14.389799999999997 15.116000000000003 14.5286
Si 888 14.047299999999996 12.6887 6.622510000000002
Si 890 9.54438 19.7662 9.19774
Si 897 21.2475 12.522099999999998 13.667599999999997
Si 898 8.42157 15.046800000000001 10.0381
Si 902 9.704980000000003 0.22240000000000038 18.431500000000003
Si 903 14.2227 10.896899999999999 17.7599
Si 907 19.108999999999998 4.00929 13.7696
Si 909 9.34825 7.51069 16.879899999999996
Si 910 16.881900000000005 16.460200000000004 18.067600000000002
Si 919 18.6238 9.06136 21.233099999999997
Si 920 3.7610300000000016 7.376070000000002 6.303630000000002
Si 921 3.624880000000001 7.088419999999999 17.602099999999997
Si 922 17.6737 4.152200000000001 1.8672900000000006
Si 926 18.812500000000004 13.415600000000001 14.1863
Si 927 1.789900000000003 11.0964 9.760450000000002
Si 928 16.9644 20.7107 3.2246999999999986
Si 931 5.80574 5.772960000000001 18.164599999999997
Si 933 13.9143 17.6576 12.906000000000002
Si 936 3.002410000000001 4.854700000000001 5.00553
Si 938 19.1495 19.1538 20.9004
Si 940 17.3008 10.456500000000002 16.7032
Si 941 12.507099999999998 2.165960000000002 1.040700000000001
Si 944 2.546150000000001 9.59536 12.815099999999997
Si 950 13.870499999999996 5.760680000000001 10.066100000000002
Si 951 10.6338 10.156000000000002 15.514300000000002
Si 953 2.7401000000000018 2.2421700000000016 4.84318
Si 957 4.286819999999999 9.899620000000002 17.8317
Si 958 7.1159 17.9442 11.320800000000002
Si 961 19.070399999999996 6.333870000000001 16.4611
Si 962 8.59714 5.902280000000001 18.831599999999998
Si 963 13.697599999999998 12.598499999999998 14.990199999999998
Si 965 7.961449999999999 18.1979 14.607699999999998
Si 969 8.43083 9.89585 3.2708499999999994
Si 970 11.314699999999998 0.17949999999999733 15.651999999999997
Si 971 12.1658 4.168510000000001 20.6844
Si 972 17.751499999999997 18.9342 16.296499999999998
Si 976 2.899470000000001 8.82275 10.2791
Si 979 10.868600000000004 2.4847199999999994 11.8783
Si 980 11.485699999999998 14.3492 7.35332
Si 986 15.514599999999998 18.636799999999997 17.320200000000003
Si 987 15.189899999999998 1.9075099999999985 2.54927
Si 989 15.312699999999996 7.784749999999999 9.81934
Si 990 18.530199999999997 0.014800000000001035 15.463399999999996
Si 992 2.207180000000001 0.31280000000000285 6.598769999999998
Si 995 15.9421 2.8884399999999992 0.38239999999999696
Si 997 7.233830000000001 6.99428 4.467980000000001
Si 1002 21.007099999999998 8.807219999999997 15.943299999999997
Si 1006 3.3203899999999997 4.0802499999999995 17.7552
Si 1007 12.422799999999999 8.054120000000001 8.605630000000001
O 1 16.1882 18.673999999999996 15.7593
O 1 16.1882 18.673999999999996 15.7593
O 1 16.1882 18.673999999999996 15.7593
O 3 15.350799999999996 17.971300000000003 8.949850000000001
O 6 1.4365000000000023 1.1572999999999993 5.245450000000002
O 6 1.4365000000000023 1.1572999999999993 5.245450000000002
O 7 4.75947 9.685410000000001 3.379619999999999
O 8 16.655999999999995 15.528299999999998 19.3499
O 9 19.5956 2.9473400000000005 14.9575
O 9 19.5956 2.9473400000000005 14.9575
O 11 13.688399999999998 4.952999999999999 5.2263899999999985
O 13 12.305699999999998 8.078039999999998 12.2225
O 13 12.305699999999998 8.078039999999998 12.2225
O 15 9.06794 18.6771 0.032099999999999795
O 16 9.64065 6.1311800000000005 1.2302000000000035
O 17 15.121300000000002 8.81533 4.301289999999998
O 20 12.161599999999996 11.972399999999997 1.9224500000000013
O 20 12.161599999999996 11.972399999999997 1.9224500000000013
O 23 18.0412 7.583449999999999 0.14639999999999986
O 23 18.0412 7.583449999999999 0.14639999999999986
O 26 16.523799999999998 11.418200000000002 15.635700000000003
O 27 14.263000000000002 21.184900000000003 19.9708
O 28 14.056299999999997 4.105080000000001 9.781949999999998
O 29 10.8796 0.4673000000000016 17.3045
O 29 10.8796 0.4673000000000016 17.3045
O 29 10.8796 0.4673000000000016 17.3045
O 30 3.3855000000000004 7.6066 4.3812
O 32 18.622000000000003 11.404 16.8158
O 33 9.772659999999998 10.6709 14.174600000000002
O 34 7.688040000000001 1.0200000000000031 10.208099999999998
O 35 20.252 9.22945 17.2931
O 38 5.1618400000000015 7.346309999999999 18.316800000000004
O 38 5.1618400000000015 7.346309999999999 18.316800000000004
O 38 5.1618400000000015 7.346309999999999 18.316800000000004
O 39 17.8796 9.540609999999997 18.100799999999996
O 39 17.8796 9.540609999999997 18.100799999999996
O 40 8.19184 6.28464 3.278269999999999
O 41 19.1388 2.281299999999998 1.9879299999999986
O 45 14.702099999999998 3.7369999999999983 17.7056
O 47 12.6069 17.0504 17.698799999999995
O 50 3.258510000000001 1.5837000000000003 6.38054
O 50 3.258510000000001 1.5837000000000003 6.38054
O 50 3.258510000000001 1.5837000000000003 6.38054
O 51 9.273210000000002 5.941279999999999 20.2043
O 51 9.273210000000002 5.941279999999999 20.2043
O 54 13.033199999999997 10.254999999999999 19.0018
O 57 4.128330000000002 0.6623000000000019 12.4361
O 58 8.92472 5.8712599999999995 17.2364
O 58 8.92472 5.8712599999999995 17.2364
O 60 5.326329999999999 15.0256 7.400169999999999
O 60 5.326329999999999 15.0256 7.400169999999999
O 62 18.1823 18.771000000000004 0.8609000000000009
O 63 7.13336 10.2395 6.351670000000002
O 65 2.1142000000000003 7.482319999999998 9.971230000000002
O 65 2.1142000000000003 7.482319999999998 9.971230000000002
O 66 8.935939999999999 5.313849999999999 12.994400000000002
O 68 20.2013 4.813770000000002 12.8627
O 69 0.6978999999999971 0.8990999999999971 10.2575
O 74 13.945899999999998 16.0487 7.3445399999999985
O 76 17.1609 18.1097 17.7199
O 76 17.1609 18.1097 17.7199
O 76 17.1609 18.1097 17.7199
O 77 17.8235 12.291100000000004 13.455200000000001
O 78 6.52309 17.646800000000002 15.119699999999998
O 79 15.775499999999997 20.0739 18.163299999999996
O 82 0.32849999999999824 0.2518999999999991 20.286599999999996
O 84 16.2653 4.690429999999999 5.2241
O 85 6.937729999999998 14.600399999999997 10.0486
O 87 1.8957200000000007 0.6567999999999969 8.176489999999998
O 89 13.153400000000001 5.22927 11.468799999999998
O 89 13.153400000000001 5.22927 11.468799999999998
O 92 18.753900000000005 19.682999999999996 19.3879
O 93 8.973789999999997 15.976299999999998 8.729009999999999
O 93 8.973789999999997 15.976299999999998 8.729009999999999
O 95 20.795599999999997 19.0928 21.1088
O 95 20.795599999999997 19.0928 21.1088
O 97 13.496500000000001 6.575210000000002 0.9313000000000002
O 97 13.496500000000001 6.575210000000002 0.9313000000000002
O 99 8.9314 21.044699999999995 8.24332
O 100 19.940900000000003 13.473900000000004 12.865399999999998
O 100 19.940900000000003 13.473900000000004 12.865399999999998
O 102 3.9095200000000006 3.5419300000000007 5.42709
O 102 3.9095200000000006 3.5419300000000007 5.42709
O 102 3.9095200000000006 3.5419300000000007 5.42709
O 105 3.181540000000002 8.45075 11.904700000000002
O 105 3.181540000000002 8.45075 11.904700000000002
O 106 14.694500000000001 9.45775 6.773569999999999
O 108 12.259800000000002 17.843300000000003 12.735699999999998
O 110 17.2884 9.83323 20.473000000000003
O 110 17.2884 9.83323 20.473000000000003
O 111 11.006400000000003 8.299319999999998 9.31915
O 113 13.462900000000001 13.500499999999999 3.271069999999998
O 114 16.5292 2.8655800000000013 1.9799900000000008
O 114 16.5292 2.8655800000000013 1.9799900000000008
O 114 16.5292 2.8655800000000013 1.9799900000000008
O 115 12.458500000000004 18.0007 6.192319999999999
O 117 5.303709999999999 16.8794 5.5348299999999995
O 118 18.571500000000004 0.4435000000000002 13.701399999999996
O 118 18.571500000000004 0.4435000000000002 13.701399999999996
O 118 18.571500000000004 0.4435000000000002 13.701399999999996
O 119 15.6005 2.88823 20.121
O 121 4.316659999999999 9.202270000000002 9.693999999999999
O 122 15.3173 6.157160000000001 9.41639
O 122 15.3173 6.157160000000001 9.41639
O 123 11.6418 9.233889999999999 14.4485
O 123 11.6418 9.233889999999999 14.4485
O 123 11.6418 9.233889999999999 14.4485
O 124 16.575300000000002 5.566420000000001 1.8642299999999992
O 124 16.575300000000002 5.566420000000001 1.8642299999999992
O 124 16.575300000000002 5.566420000000001 1.8642299999999992
O 129 20.5611 9.78502 14.669599999999999
O 130 11.4759 0.8972000000000051 12.333299999999998
O 132 7.706579999999999 8.084500000000002 16.867700000000003
O 132 7.706579999999999 8.084500000000002 16.867700000000003
O 133 21.0333 11.237799999999996 12.735299999999999
O 137 15.162400000000002 2.82048 3.986319999999999
O 138 9.449859999999997 7.88655 18.538299999999996
O 138 9.449859999999997 7.88655 18.538299999999996
O 139 0.1595000000000013 8.16714 7.91358
O 139 0.1595000000000013 8.16714 7.91358
O 140 20.6585 6.91789 9.91994
O 140 20.6585 6.91789 9.91994
O 142 15.941300000000002 0.6802000000000064 10.5851
O 142 15.941300000000002 0.6802000000000064 10.5851
O 145 17.628599999999995 9.116060000000001 15.694300000000002
O 148 12.890899999999998 7.8872800000000005 20.3539
O 149 5.841930000000001 4.576820000000001 19.2503
O 150 0.7603000000000009 7.819990000000001 15.0333
O 150 0.7603000000000009 7.819990000000001 15.0333
O 150 0.7603000000000009 7.819990000000001 15.0333
O 151 3.9724299999999992 2.573360000000001 17.432599999999997
O 151 3.9724299999999992 2.573360000000001 17.432599999999997
O 153 11.754700000000003 3.0159200000000013 10.5989
O 154 2.419599999999999 10.622400000000003 6.681660000000001
O 155 19.983999999999998 20.1818 10.546800000000001
O 155 19.983999999999998 20.1818 10.546800000000001
O 157 15.635300000000004 0.4846999999999966 3.2591600000000014
O 157 15.635300000000004 0.4846999999999966 3.2591600000000014
O 159 7.14424 6.626000000000001 18.7925
O 159 7.14424 6.626000000000001 18.7925
O 159 7.14424 6.626000000000001 18.7925
O 161 13.865199999999998 1.92483 11.311899999999998
O 162 4.970970000000001 1.0279999999999987 9.649179999999998
O 162 4.970970000000001 1.0279999999999987 9.649179999999998
O 163 11.206399999999999 1.7982000000000014 2.0986200000000004
O 163 11.206399999999999 1.7982000000000014 2.0986200000000004
O 168 3.710090000000001 6.82376 7.920480000000001
O 169 1.1082000000000036 20.331800000000005 1.0878000000000014
O 172 20.456999999999997 0.4189000000000007 12.3338
O 172 20.456999999999997 0.4189000000000007 12.3338
O 173 11.281000000000002 7.92005 0.721899999999998
O 173 11.281000000000002 7.92005 0.721899999999998
O 173 11.281000000000002 7.92005 0.721899999999998
O 177 6.674620000000001 5.18235 16.8659
O 178 5.087489999999999 18.1371 7.7924299999999995
O 178 5.087489999999999 18.1371 7.7924299999999995
O 178 5.087489999999999 18.1371 7.7924299999999995
O 179 2.504529999999999 6.707889999999999 16.2861
O 179 2.504529999999999 6.707889999999999 16.2861
O 179 2.504529999999999 6.707889999999999 16.2861
O 180 3.44285 9.351130000000001 19.2454
O 182 7.244060000000001 8.823519999999998 19.654100000000003
O 184 3.0218799999999995 11.7336 8.8382
O 185 12.466600000000003 0.5273000000000039 0.35419999999999874
O 185 12.466600000000003 0.5273000000000039 0.35419999999999874
O 189 17.2341 3.5898000000000003 16.1454
O 190 16.5388 5.48997 11.728100000000001
O 191 9.511959999999998 10.2056 5.126570000000001
O 193 17.3304 3.988710000000001 0.12950000000000017
O 193 17.3304 3.988710000000001 0.12950000000000017
O 194 16.633799999999997 10.756699999999999 5.022349999999999
O 195 20.3954 8.56295 0.47569999999999624
O 195 20.3954 8.56295 0.47569999999999624
O 196 20.4633 0.3300000000000054 8.56213
O 201 9.36535 16.9596 6.169309999999999
O 202 4.75187 13.990199999999998 9.89516
O 202 4.75187 13.990199999999998 9.89516
O 204 7.269549999999999 17.2912 7.426069999999999
O 204 7.269549999999999 17.2912 7.426069999999999
O 205 8.004059999999999 17.6675 13.063300000000002
O 205 8.004059999999999 17.6675 13.063300000000002
O 206 6.795840000000002 5.500240000000002 5.1007
O 210 13.449900000000003 11.639500000000002 7.75855
O 210 13.449900000000003 11.639500000000002 7.75855
O 211 20.8727 2.6397799999999982 16.9567
O 214 8.326699999999999 12.2773 7.346309999999999
O 214 8.326699999999999 12.2773 7.346309999999999
O 216 9.703509999999998 20.887599999999996 10.3503
O 218 12.629700000000003 6.58821 9.4087
O 218 12.629700000000003 6.58821 9.4087
O 219 4.232040000000001 0.12349999999999994 16.849700000000002
O 220 14.2499 11.904900000000001 13.597100000000001
O 222 9.64385 20.285 19.466600000000003
O 222 9.64385 20.285 19.466600000000003
O 223 10.0521 20.4774 15.383700000000001
O 223 10.0521 20.4774 15.383700000000001
O 224 1.237400000000001 7.80031 0.08170000000000499
O 225 1.8164000000000016 3.5448200000000014 4.574999999999999
O 225 1.8164000000000016 3.5448200000000014 4.574999999999999
O 229 4.636669999999999 11.318099999999998 18.5303
O 229 4.636669999999999 11.318099999999998 18.5303
O 231 14.262600000000003 5.6782900000000005 2.9378600000000006
O 231 14.262600000000003 5.6782900000000005 2.9378600000000006
O 232 4.850819999999999 11.676199999999998 2.1557899999999997
O 234 5.902529999999999 9.48086 17.4856
O 234 5.902529999999999 9.48086 17.4856
O 237 16.477499999999996 8.259730000000001 8.678090000000001
O 238 11.326399999999996 12.987799999999996 8.46696
O 238 11.326399999999996 12.987799999999996 8.46696
O 239 18.2591 0.33610000000000184 6.980789999999999
O 243 16.371399999999998 19.5853 2.1906399999999984
O 244 4.0880399999999995 16.515800000000002 9.11636
O 244 4.0880399999999995 16.515800000000002 9.11636
O 244 4.0880399999999995 16.515800000000002 9.11636
O 245 9.106390000000001 1.6189999999999998 19.0455
O 249 12.0348 3.440380000000001 12.690000000000001
O 250 12.013200000000001 5.8932 13.380500000000001
O 252 4.15288 19.552399999999995 9.592780000000001
O 252 4.15288 19.552399999999995 9.592780000000001
O 253 11.859799999999996 3.7473600000000005 0.9624999999999986
O 253 11.859799999999996 3.7473600000000005 0.9624999999999986
O 253 11.859799999999996 3.7473600000000005 0.9624999999999986
O 254 8.83173 13.173599999999997 4.79307
O 258 10.221500000000002 18.6394 10.353100000000001
O 259 9.63606 1.9275699999999993 10.995700000000003
O 259 9.63606 1.9275699999999993 10.995700000000003
O 260 5.988870000000002 12.624500000000001 8.60302
O 261 8.80685 14.6176 11.5853
O 262 17.317600000000002 20.5258 9.029909999999997
O 264 6.230059999999998 3.1337100000000007 6.160709999999998
O 264 6.230059999999998 3.1337100000000007 6.160709999999998
O 266 5.697890000000001 18.343800000000005 12.022099999999998
O 267 10.771599999999996 10.361999999999998 0.8912000000000049
O 267 10.771599999999996 10.361999999999998 0.8912000000000049
O 272 2.7021300000000004 4.22073 16.110900000000004
O 272 2.7021300000000004 4.22073 16.110900000000004
O 273 20.466399999999997 6.70055 6.506509999999999
O 276 16.0977 10.2564 2.5853199999999994
O 276 16.0977 10.2564 2.5853199999999994
O 277 4.424389999999999 20.879700000000003 7.656600000000001
O 278 0.33310000000000173 6.244250000000001 17.428299999999997
O 280 13.767100000000003 21.01 12.217900000000004
O 281 3.896910000000002 1.6163000000000025 3.8598999999999997
O 283 14.792100000000001 4.125800000000002 0.8415000000000035
O 283 14.792100000000001 4.125800000000002 0.8415000000000035
O 284 17.8496 13.709700000000002 15.580000000000002
O 284 17.8496 13.709700000000002 15.580000000000002
O 286 14.779799999999998 17.9352 3.7121299999999984
O 287 10.751000000000001 17.573399999999996 8.117439999999998
O 288 15.993600000000004 15.5093 14.214200000000002
O 290 9.25965 11.105099999999997 2.56804
O 290 9.25965 11.105099999999997 2.56804
O 291 3.6506700000000016 10.832699999999999 13.086400000000001
O 291 3.6506700000000016 10.832699999999999 13.086400000000001
O 292 8.535990000000002 21.146800000000002 17.320600000000002
O 293 11.954899999999999 5.550840000000001 18.123499999999996
O 294 13.710800000000003 1.5356000000000023 13.863200000000003
O 299 13.118300000000001 14.128199999999996 14.403099999999998
O 299 13.118300000000001 14.128199999999996 14.403099999999998
O 300 15.934100000000004 10.512699999999999 17.9106
O 300 15.934100000000004 10.512699999999999 17.9106
O 300 15.934100000000004 10.512699999999999 17.9106
O 301 15.781600000000001 12.644299999999998 3.638670000000001
O 303 12.602700000000002 3.095649999999999 16.601199999999995
O 306 17.4522 6.2671600000000005 16.2015
O 306 17.4522 6.2671600000000005 16.2015
O 307 13.4708 16.3088 4.873239999999999
O 307 13.4708 16.3088 4.873239999999999
O 308 14.0241 9.19061 17.2629
O 308 14.0241 9.19061 17.2629
O 309 2.2573800000000013 9.52018 8.804199999999998
O 309 2.2573800000000013 9.52018 8.804199999999998
O 309 2.2573800000000013 9.52018 8.804199999999998
O 310 15.743100000000002 17.8466 13.470600000000001
O 310 15.743100000000002 17.8466 13.470600000000001
O 312 15.7366 6.490490000000001 21.194800000000004
O 312 15.7366 6.490490000000001 21.194800000000004
O 313 11.4545 14.400099999999998 4.293759999999999
O 314 17.1204 15.721799999999998 16.5778
O 314 17.1204 15.721799999999998 16.5778
O 317 19.184 4.774629999999998 1.6388999999999996
O 321 10.5122 18.460200000000004 17.403899999999997
O 321 10.5122 18.460200000000004 17.403899999999997
O 323 15.664199999999997 0.7199000000000026 6.497389999999999
O 324 16.298400000000004 15.991800000000001 6.063780000000001
O 325 10.8141 2.4793699999999994 4.238099999999999
O 326 19.37 20.7439 0.12519999999999953
O 326 19.37 20.7439 0.12519999999999953
O 326 19.37 20.7439 0.12519999999999953
O 327 18.017600000000005 19.893000000000004 14.833000000000002
O 327 18.017600000000005 19.893000000000004 14.833000000000002
O 327 18.017600000000005 19.893000000000004 14.833000000000002
O 328 10.3688 13.344600000000003 2.560600000000001
O 328 10.3688 13.344600000000003 2.560600000000001
O 329 12.3111 7.72373 18.167199999999998
O 333 20.4179 9.21698 11.212599999999998
O 335 3.923590000000001 5.8383199999999995 5.888059999999999
O 335 3.923590000000001 5.8383199999999995 5.888059999999999
O 337 20.230300000000003 7.869209999999999 13.0699
O 337 20.230300000000003 7.869209999999999 13.0699
O 339 16.242300000000004 2.4157800000000016 13.499500000000001
O 339 16.242300000000004 2.4157800000000016 13.499500000000001
O 343 6.520330000000001 12.678100000000004 6.197120000000002
O 343 6.520330000000001 12.678100000000004 6.197120000000002
O 344 8.778740000000003 0.23790000000000333 12.448899999999998
O 345 12.0354 10.0702 16.4327
O 345 12.0354 10.0702 16.4327
O 346 8.292750000000002 2.72232 4.963719999999999
O 347 3.883849999999999 13.903000000000002 4.719739999999998
O 348 2.9260899999999985 9.289950000000001 14.5397
O 348 2.9260899999999985 9.289950000000001 14.5397
O 348 2.9260899999999985 9.289950000000001 14.5397
O 352 2.9225600000000007 0.714500000000001 18.8398
O 354 16.337999999999997 8.038810000000002 11.078199999999999
O 356 12.236 10.758599999999998 12.508700000000001
O 357 19.559900000000003 8.90241 19.833000000000002
O 357 19.559900000000003 8.90241 19.833000000000002
O 359 14.793699999999998 3.8448199999999986 12.549299999999999
O 359 14.793699999999998 3.8448199999999986 12.549299999999999
O 360 18.5746 1.5424999999999969 10.5474
O 361 7.9878800000000005 19.335600000000003 11.256899999999998
O 364 8.521530000000002 18.9427 16.1546
O 364 8.521530000000002 18.9427 16.1546
O 365 13.149599999999996 0.016200000000004877 9.61667
O 366 11.952699999999997 9.391470000000002 4.938189999999999
O 367 5.4206199999999995 9.8414 14.960399999999996
O 368 11.9269 15.349999999999998 8.582989999999999
O 369 7.06063 1.7834999999999965 20.7388
O 370 3.416260000000001 5.029419999999998 3.4444300000000005
O 374 13.6874 5.5495899999999985 16.3835
O 374 13.6874 5.5495899999999985 16.3835
O 374 13.6874 5.5495899999999985 16.3835
O 377 5.7782599999999995 0.24610000000000554 18.4224
O 377 5.7782599999999995 0.24610000000000554 18.4224
O 378 3.2470800000000004 16.4314 6.552870000000002
O 379 0.8003 9.43086 19.5755
O 381 4.472930000000002 2.985109999999999 7.946300000000001
O 383 12.5307 18.873099999999997 3.83474
O 385 2.4041700000000006 6.911719999999999 18.693900000000003
O 391 10.669299999999996 8.856109999999997 2.9583000000000013
O 391 10.669299999999996 8.856109999999997 2.9583000000000013
O 392 14.919 9.107670000000002 19.6713
O 393 11.5703 5.822279999999999 20.628400000000003
O 393 11.5703 5.822279999999999 20.628400000000003
O 395 17.178299999999997 20.999100000000002 4.824580000000001
O 395 17.178299999999997 20.999100000000002 4.824580000000001
O 396 1.6473000000000013 5.876909999999999 4.974
O 397 11.071200000000001 3.5162499999999994 19.6559
O 399 0.8066000000000031 19.832600000000003 11.1859
O 399 0.8066000000000031 19.832600000000003 11.1859
O 401 11.294700000000002 6.5306 3.7058600000000013
O 401 11.294700000000002 6.5306 3.7058600000000013
O 403 6.511389999999999 20.0617 8.66798
O 403 6.511389999999999 20.0617 8.66798
O 404 8.015820000000001 8.604029999999998 4.215949999999999
O 404 8.015820000000001 8.604029999999998 4.215949999999999
O 406 9.93037 11.390699999999999 16.459099999999996
O 407 19.467900000000004 15.4971 15.569300000000002
O 408 12.588399999999996 19.0371 10.4894
O 409 15.279700000000002 17.059100000000004 17.8892
O 409 15.279700000000002 17.059100000000004 17.8892
O 410 15.485900000000004 7.780280000000001 15.392100000000003
O 411 19.0455 2.711479999999998 12.662499999999998
O 411 19.0455 2.711479999999998 12.662499999999998
O 412 5.45486 0.981500000000004 5.870660000000001
O 412 5.45486 0.981500000000004 5.870660000000001
O 413 7.794360000000001 3.3225300000000004 11.7649
O 413 7.794360000000001 3.3225300000000004 11.7649
O 414 21.099 6.9601700000000015 19.5896
O 415 5.051120000000001 21.2156 20.8894
O 418 5.128160000000001 10.5485 7.524899999999999
O 419 7.293089999999999 7.829550000000001 6.127950000000002
O 419 7.293089999999999 7.829550000000001 6.127950000000002
O 422 15.502500000000001 12.937500000000004 7.31006
O 424 5.581810000000001 20.739 11.127300000000002
O 424 5.581810000000001 20.739 11.127300000000002
O 425 14.688199999999998 14.265800000000002 5.424240000000001
O 425 14.688199999999998 14.265800000000002 5.424240000000001
O 426 15.563199999999998 5.186170000000001 15.143899999999999
O 426 15.563199999999998 5.186170000000001 15.143899999999999
O 427 11.690999999999999 0.7304999999999993 19.420999999999996
O 427 11.690999999999999 0.7304999999999993 19.420999999999996
O 427 11.690999999999999 0.7304999999999993 19.420999999999996
O 428 16.3197 20.1022 13.243199999999998
O 428 16.3197 20.1022 13.243199999999998
O 429 8.55848 8.968599999999999 1.797699999999999
O 429 8.55848 8.968599999999999 1.797699999999999
O 430 14.021599999999996 10.648 3.0289199999999994
O 430 14.021599999999996 10.648 3.0289199999999994
O 431 14.2972 12.2407 18.6084
O 432 4.265969999999999 12.497400000000003 14.523300000000003
O 433 20.0095 0.35199999999999676 15.925799999999999
O 436 13.586699999999997 2.129619999999999 2.233810000000002
O 436 13.586699999999997 2.129619999999999 2.233810000000002
O 438 12.880100000000002 21.2886 16.444099999999995
O 438 12.880100000000002 21.2886 16.444099999999995
O 440 9.669729999999998 17.661000000000005 14.790299999999998
O 440 9.669729999999998 17.661000000000005 14.790299999999998
O 441 12.9909 2.556239999999999 20.8145
O 441 12.9909 2.556239999999999 20.8145
O 441 12.9909 2.556239999999999 20.8145
O 443 19.1065 5.09572 15.145599999999998
O 443 19.1065 5.09572 15.145599999999998
O 443 19.1065 5.09572 15.145599999999998
O 443 19.1065 5.09572 15.145599999999998
O 444 11.492799999999999 11.8357 4.2791
O 445 19.328800000000005 9.08813 6.022780000000001
O 447 0.1968000000000032 8.123180000000001 5.055869999999999
O 449 9.83606 11.158400000000004 8.84645
O 451 13.5699 9.69887 0.7578000000000031
O 455 3.666260000000001 13.455200000000001 18.8287
O 456 1.2003000000000057 9.29898 16.605099999999997
O 456 1.2003000000000057 9.29898 16.605099999999997
O 459 20.762199999999996 0.697499999999998 1.252900000000004
O 459 20.762199999999996 0.697499999999998 1.252900000000004
O 460 12.1921 4.333189999999998 3.3620100000000015
O 460 12.1921 4.333189999999998 3.3620100000000015
O 465 1.4705999999999975 12.465700000000002 10.692499999999999
O 466 13.0339 17.877100000000002 8.74222
O 467 13.930200000000003 9.57609 14.359300000000001
O 468 13.866499999999998 18.799700000000005 14.1829
O 468 13.866499999999998 18.799700000000005 14.1829
O 469 1.515900000000002 6.11637 13.630399999999998
O 474 18.068100000000005 0.20750000000000313 2.359849999999998
O 474 18.068100000000005 0.20750000000000313 2.359849999999998
O 475 0.7556999999999974 20.611499999999996 6.465979999999998
O 477 13.074000000000002 7.506779999999999 15.698600000000003
O 477 13.074000000000002 7.506779999999999 15.698600000000003
O 477 13.074000000000002 7.506779999999999 15.698600000000003
O 479 14.200300000000002 7.174530000000001 11.0716
O 479 14.200300000000002 7.174530000000001 11.0716
O 479 14.200300000000002 7.174530000000001 11.0716
O 480 8.54571 4.3687000000000005 15.2792
O 481 19.2296 17.5707 20.2383
O 482 0.2394999999999996 10.7259 9.45477
O 484 11.138000000000002 1.6781000000000006 15.214200000000002
O 488 17.1985 18.8011 10.822399999999998
O 491 0.8928000000000011 4.94351 10.8584
O 493 7.70759 15.0286 5.985220000000002
O 495 15.0502 19.9971 10.3094
O 495 15.0502 19.9971 10.3094
O 495 15.0502 19.9971 10.3094
O 496 5.0777 13.0408 16.779699999999995
O 498 0.9673000000000016 9.111059999999998 13.020599999999998
O 498 0.9673000000000016 9.111059999999998 13.020599999999998
O 499 9.928070000000002 13.938100000000002 7.007899999999999
O 499 9.928070000000002 13.938100000000002 7.007899999999999
O 499 9.928070000000002 13.938100000000002 7.007899999999999
O 500 18.3462 1.8915499999999987 4.692409999999999
O 500 18.3462 1.8915499999999987 4.692409999999999
O 501 0.24140000000000583 4.607189999999999 15.644299999999998
O 501 0.24140000000000583 4.607189999999999 15.644299999999998
O 502 0.45830000000000126 7.12191 11.732800000000001
O 502 0.45830000000000126 7.12191 11.732800000000001
O 502 0.45830000000000126 7.12191 11.732800000000001
O 503 16.9243 2.589089999999999 6.157599999999999
O 503 16.9243 2.589089999999999 6.157599999999999
O 504 6.62293 1.2834999999999965 12.435800000000004
O 504 6.62293 1.2834999999999965 12.435800000000004
O 505 11.9774 12.316999999999997 15.039599999999997
O 507 18.6281 16.1135 18.0934
O 507 18.6281 16.1135 18.0934
O 508 7.46359 20.798400000000004 20.387400000000003
O 508 7.46359 20.798400000000004 20.387400000000003
O 511 6.45082 17.809699999999996 9.7833
O 511 6.45082 17.809699999999996 9.7833
O 512 8.45149 4.1950199999999995 18.676400000000005
O 514 15.186400000000003 10.571200000000001 9.188289999999999
O 515 19.1112 7.085629999999998 18.0237
O 518 19.2351 19.3745 12.8083
O 518 19.2351 19.3745 12.8083
O 520 13.9117 18.8937 16.726199999999995
O 520 13.9117 18.8937 16.726199999999995
O 525 3.572890000000001 8.60445 16.945399999999996
O 525 3.572890000000001 8.60445 16.945399999999996
O 525 3.572890000000001 8.60445 16.945399999999996
O 526 12.406600000000001 9.75706 8.082359999999998
O 526 12.406600000000001 9.75706 8.082359999999998
O 527 4.733779999999999 2.7586200000000005 11.392799999999998
O 528 12.368300000000001 19.930899999999998 18.3205
O 528 12.368300000000001 19.930899999999998 18.3205
O 529 0.7932000000000059 5.8628800000000005 8.55949
O 533 9.263670000000001 8.23028 21.0314
O 533 9.263670000000001 8.23028 21.0314
O 534 17.8353 7.399380000000001 2.648109999999999
O 535 19.839699999999997 7.498329999999999 15.841899999999999
O 535 19.839699999999997 7.498329999999999 15.841899999999999
O 536 7.802510000000002 19.798199999999998 14.283800000000003
O 539 4.9519400000000005 8.43534 6.116240000000001
O 539 4.9519400000000005 8.43534 6.116240000000001
O 540 17.536999999999995 4.457840000000001 13.618600000000004
O 540 17.536999999999995 4.457840000000001 13.618600000000004
O 540 17.536999999999995 4.457840000000001 13.618600000000004
O 541 11.120700000000003 19.8957 8.523500000000002
O 543 3.149840000000001 14.3845 8.52956
O 543 3.149840000000001 14.3845 8.52956
O 545 18.155800000000003 14.746199999999998 13.306699999999996
O 546 3.602149999999998 3.9586599999999983 19.4053
O 547 14.3169 11.734100000000002 5.33774
O 547 14.3169 11.734100000000002 5.33774
O 548 8.573530000000002 18.6818 8.55422
O 548 8.573530000000002 18.6818 8.55422
O 548 8.573530000000002 18.6818 8.55422
O 551 6.9453700000000005 10.693099999999998 3.5300800000000017
O 551 6.9453700000000005 10.693099999999998 3.5300800000000017
O 553 0.9489000000000019 13.647400000000001 12.9956
O 554 2.3040699999999994 18.006800000000002 9.95985
O 555 13.572599999999998 3.9602600000000017 14.567800000000002
O 555 13.572599999999998 3.9602600000000017 14.567800000000002
O 557 11.642100000000003 15.7576 6.418580000000002
O 558 4.374359999999999 15.827099999999998 11.473699999999997
O 561 5.893440000000002 7.391729999999999 3.814260000000001
O 562 14.255199999999999 6.64423 13.605099999999997
O 562 14.255199999999999 6.64423 13.605099999999997
O 563 18.3832 9.84816 1.3571000000000026
O 565 9.64538 12.4438 0.38450000000000273
O 567 2.551770000000001 18.401500000000002 7.814420000000002
O 568 3.847249999999999 10.8336 16.429199999999998
O 568 3.847249999999999 10.8336 16.429199999999998
O 568 3.847249999999999 10.8336 16.429199999999998
O 571 15.081799999999998 2.657869999999999 15.640199999999997
O 571 15.081799999999998 2.657869999999999 15.640199999999997
O 573 0.2931000000000026 9.780339999999999 6.527149999999999
O 573 0.2931000000000026 9.780339999999999 6.527149999999999
O 574 18.366400000000002 19.290899999999997 3.4359900000000003
O 575 16.727700000000002 3.076719999999998 11.049299999999999
O 577 5.04561 1.9859399999999994 19.541699999999995
O 577 5.04561 1.9859399999999994 19.541699999999995
O 578 16.714699999999997 7.6782 18.964900000000004
O 581 18.3261 20.273299999999995 16.997000000000003
O 581 18.3261 20.273299999999995 16.997000000000003
O 584 4.670680000000001 11.418800000000001 5.067229999999999
O 584 4.670680000000001 11.418800000000001 5.067229999999999
O 585 1.1951999999999998 11.882899999999996 14.7165
O 586 6.790130000000001 1.032500000000006 3.8957900000000016
O 587 6.3444199999999995 8.36741 8.4361
O 589 10.3005 9.615370000000002 11.691500000000001
O 590 13.463600000000003 4.98282 20.0397
O 592 14.026700000000002 8.49286 8.98163
O 592 14.026700000000002 8.49286 8.98163
O 592 14.026700000000002 8.49286 8.98163
O 593 0.13589999999999947 19.748099999999997 13.526999999999997
O 594 14.091799999999996 16.0568 15.879300000000004
O 596 15.1018 13.559100000000004 15.273
O 596 15.1018 13.559100000000004 15.273
O 598 4.220859999999998 5.44097 17.489300000000004
O 598 4.220859999999998 5.44097 17.489300000000004
O 598 4.220859999999998 5.44097 17.489300000000004
O 601 14.054599999999997 11.572399999999998 16.253000000000004
O 601 14.054599999999997 11.572399999999998 16.253000000000004
O 603 13.159899999999997 8.40045 2.5527000000000015
O 603 13.159899999999997 8.40045 2.5527000000000015
O 603 13.159899999999997 8.40045 2.5527000000000015
O 604 9.739810000000002 4.050229999999999 2.699770000000001
O 605 2.1749100000000006 15.011300000000002 10.767100000000003
O 606 18.676199999999998 4.5100799999999985 5.841889999999999
O 608 12.715700000000002 13.638200000000001 6.590109999999999
O 608 12.715700000000002 13.638200000000001 6.590109999999999
O 610 7.099720000000001 3.109840000000002 14.1187
O 611 18.679999999999996 7.006240000000002 11.311499999999999
O 613 19.564200000000003 4.99295 17.349300000000003
O 613 19.564200000000003 4.99295 17.349300000000003
O 614 8.53292 20.539999999999996 1.5681999999999974
O 615 13.866499999999998 16.101699999999997 13.3676
O 615 13.866499999999998 16.101699999999997 13.3676
O 616 10.776599999999998 6.96067 16.3148
O 616 10.776599999999998 6.96067 16.3148
O 617 2.2235699999999987 10.151999999999997 11.055600000000002
O 617 2.2235699999999987 10.151999999999997 11.055600000000002
O 617 2.2235699999999987 10.151999999999997 11.055600000000002
O 620 13.072599999999998 7.117540000000002 4.686060000000001
O 620 13.072599999999998 7.117540000000002 4.686060000000001
O 621 17.398299999999995 1.0286000000000044 15.927200000000003
O 623 1.7513000000000005 4.7131599999999985 17.955000000000002
O 623 1.7513000000000005 4.7131599999999985 17.955000000000002
O 625 4.161730000000002 12.8597 6.928789999999999
O 625 4.161730000000002 12.8597 6.928789999999999
O 627 9.04092 13.650700000000004 9.398509999999998
O 627 9.04092 13.650700000000004 9.398509999999998
O 628 18.0615 1.389400000000002 21.120899999999995
O 629 18.8507 17.8578 15.876300000000004
O 632 14.821900000000003 17.798400000000004 6.1393699999999995
O 632 14.821900000000003 17.798400000000004 6.1393699999999995
O 633 2.2978699999999996 12.418699999999998 16.9926
O 634 17.745300000000004 21.0951 11.734199999999998
O 634 17.745300000000004 21.0951 11.734199999999998
O 634 17.745300000000004 21.0951 11.734199999999998
O 635 14.413700000000002 17.684500000000003 11.370499999999996
O 635 14.413700000000002 17.684500000000003 11.370499999999996
O 637 15.578500000000002 8.022360000000003 1.7119
O 637 15.578500000000002 8.022360000000003 1.7119
O 639 3.1582299999999996 20.643000000000004 5.58717
O 641 7.744540000000001 0.8373000000000062 6.43167
O 643 9.691309999999998 8.99824 16.212300000000003
O 643 9.691309999999998 8.99824 16.212300000000003
O 646 5.977119999999999 12.962500000000002 3.91995
O 646 5.977119999999999 12.962500000000002 3.91995
O 648 20.1343 12.6435 14.849599999999999
O 648 20.1343 12.6435 14.849599999999999
O 649 15.3398 1.3922000000000025 0.797699999999999
O 649 15.3398 1.3922000000000025 0.797699999999999
O 650 2.2436800000000012 8.02526 6.413630000000001
O 650 2.2436800000000012 8.02526 6.413630000000001
O 651 19.271599999999996 13.722200000000004 17.558899999999998
O 653 12.4847 7.500779999999999 7.092130000000001
O 654 13.568699999999996 1.5390000000000015 18.5037
O 654 13.568699999999996 1.5390000000000015 18.5037
O 655 17.948399999999996 4.022099999999998 3.5460199999999986
O 655 17.948399999999996 4.022099999999998 3.5460199999999986
O 657 9.928630000000002 7.746079999999999 13.373700000000003
O 658 8.178900000000002 16.6654 10.892100000000003
O 658 8.178900000000002 16.6654 10.892100000000003
O 659 12.241400000000002 20.8548 14.358
O 661 14.855300000000003 20.558700000000005 15.1251
O 666 9.76031 2.9520300000000006 13.2255
O 666 9.76031 2.9520300000000006 13.2255
O 668 11.831300000000002 18.9858 15.796800000000001
O 668 11.831300000000002 18.9858 15.796800000000001
O 669 0.5330999999999975 19.6272 8.845760000000002
O 671 9.56881 0.5527000000000015 21.241599999999995
