12
Lattice="21.3314 0.0 0.0 0.0 21.3314 0.0 0.0 0.0 21.3314"
Si 688 20.044699999999995 11.736900000000002 3.69313
Si 900 0.8504000000000005 11.068099999999998 1.1878000000000029
O 10 21.329600000000003 11.403499999999998 21.113400000000002
O 101 21.169299999999996 10.5577 4.2544900000000005
O 188 18.387800000000002 11.846799999999998 2.8063399999999987
O 198 20.7131 11.6399 2.17427
O 198 20.7131 11.6399 2.17427
O 384 1.6769999999999996 12.4314 1.6135999999999981
O 462 19.024400000000004 11.5793 5.075309999999998
O 473 2.1925999999999988 10.370999999999999 0.34210000000000207
O 494 20.519499999999997 13.186499999999999 4.083859999999998
O 591 0.7210999999999999 9.690009999999997 2.1315500000000007
