12
Lattice="21.3314 0.0 0.0 0.0 21.3314 0.0 0.0 0.0 21.3314"
Si 858 7.000640000000001 8.522639999999999 12.599
Si 984 6.602820000000001 10.870499999999996 11.687500000000004
O 0 5.5486 7.8063 13.014
O 31 7.743829999999999 10.0957 12.669999999999998
O 31 7.743829999999999 10.0957 12.669999999999998
O 72 7.824449999999999 7.348299999999998 11.907799999999998
O 255 5.0994199999999985 11.488200000000003 11.003400000000003
O 394 7.344829999999998 8.376149999999999 14.331799999999998
O 530 7.2666900000000005 12.1223 10.9667
O 538 6.38721 9.295849999999998 11.149400000000004
O 538 6.38721 9.295849999999998 11.149400000000004
O 626 5.9055800000000005 11.299600000000002 13.139
