10
Lattice="24.4516 0.0 0.0 0.0 24.4516 0.0 0.0 0.0 24.4516"
O 38  10.29120 19.32210 13.57940
O 70  8.41536 17.72930 13.89720
O 132 8.49552 19.92180 15.25670
O 182 11.96020 20.12150 15.32330
O 217 8.49005 19.94560 11.87860
O 234 12.36070 20.78280 12.86890
O 319 10.82490 19.48800 10.90680
O 367 10.06990 17.99640 16.05920
O 406 9.79680 17.34030 11.61770
O 644 10.49760 22.08070 14.26610
