244
Lattice="21.2067 0.0 0.0 0.0 21.2067 0.0 0.0 0.0 21.2067"
Si 672  19.22560 5.30683 7.90800
Si 673  20.99000 3.42728 8.70321
Si 674  17.80260 2.92787 6.91171
Si 675  17.61300 7.65244 9.02008
Si 677  19.66860 8.50383 6.96874
Si 678  20.47000 11.24530 7.68666
Si 679  17.34710 8.21834 4.95078
Si 680  17.07790 11.16630 3.74108
Si 682  16.17540 10.82770 6.41249
Si 683  13.92940 11.27720 7.48865
Si 684  17.02010 11.09690 9.24584
Si 686  14.68690 8.33314 7.81907
Si 687  12.31170 7.60962 8.83461
Si 688  14.59180 6.04510 10.02560
Si 689  15.26440 6.95075 12.16720
Si 691  15.49840 4.05627 7.95272
Si 693  12.64310 2.81654 7.43816
Si 695  10.90740 5.28863 7.79153
Si 696  14.20210 0.20130 7.42591
Si 697  11.75760 3.04683 4.41380
Si 698  13.03440 3.02994 1.94426
Si 699  12.50540 0.43030 3.50113
Si 700  12.35310 6.01612 4.27869
Si 701  8.93378 1.59870 4.57024
Si 702  6.68025 2.39534 5.62471
Si 704  10.76430 -0.42580 5.92739
Si 705  8.67289 4.51723 5.76900
Si 706  6.66700 -0.53050 5.18154
Si 707  4.05336 0.18020 5.79684
Si 708  7.11547 -0.45300 8.31235
Si 711  4.04365 -1.69190 3.67576
Si 713  6.33722 -2.01010 1.72680
Si 715  6.89613 -0.45180 0.15810
Si 716  7.70984 -3.55530 -0.17910
Si 717  7.01541 -4.59670 3.13475
Si 721  4.06944 -1.91650 -0.37160
Si 722  1.53690 -0.63100 -0.58730
Si 723  5.03406 -4.63690 -1.16920
Si 724  4.61920 -2.38430 -3.32670
Si 726  3.61463 0.85830 -2.21310
Si 727  1.85770 3.21035 -1.71640
Si 728  6.09445 1.15210 -4.09390
Si 731  4.61245 1.65590 0.66600
Si 732  4.47889 4.67844 1.22950
Si 733  4.60375 2.11962 4.11051
Si 734  4.53981 6.46700 -1.21980
Si 735  7.15926 6.65594 -0.15060
Si 737  5.56074 7.71758 -3.62980
Si 738  4.24902 9.84315 -1.88090
Si 739  1.76110 8.32091 -2.09870
Si 740  -0.56160 8.85557 -1.01070
Si 741  -0.20610 8.45950 -4.25080
Si 742  0.53230 5.58180 -3.20500
Si 744  -0.41910 6.14606 -5.56480
Si 745  -1.85520 4.32245 -2.12230
Si 746  0.87900 3.76602 -5.65380
Si 747  -0.19700 3.97213 -8.07560
Si 748  1.72120 1.26240 -6.06280
Si 750  3.51644 5.35648 -5.65530
Si 751  5.23933 3.82843 -3.83820
Si 753  5.41850 3.37809 -7.24530
Si 754  4.53011 8.36537 -6.33650
Si 757  4.88421 5.38715 -8.81910
Si 758  7.18912 6.80425 -7.83360
Si 759  2.17083 6.93726 -8.69250
Si 760  1.90617 4.50097 -10.27880
Si 761  0.60960 7.23072 -10.81640
Si 762  2.10402 1.57580 -9.15250
Si 765  4.76459 0.77690 -8.45470
Si 767  1.06710 -1.00470 -10.00520
Si 768  -0.74150 1.30450 -9.94080
Si 769  -2.60170 -0.67010 -11.62383
Si 770  -5.02810 0.52850 -11.34054
Si 771  -4.90660 -2.59830 -11.72127
Si 772  -1.46890 -1.20890 -14.51652
Si 773  -1.54240 -3.77460 -11.53713
Si 774  -2.69270 -4.42020 -9.14930
Si 776  0.90260 -5.09110 -11.86346
Si 779  -2.05150 -6.47850 -10.83030
Si 780  -0.82440 -5.04300 -14.21854
Si 781  -1.55170 -5.35370 -16.88928
Si 782  -2.60460 -7.53600 -13.67803
Si 784  -4.41100 -7.02070 -11.51672
Si 786  -7.10610 -5.92390 -11.97704
Si 787  -8.01340 -6.98320 -14.85053
Si 788  -8.43120 -3.51180 -10.35240
Si 790  -7.70830 -2.80890 -12.95864
Si 791  -7.55270 -4.05850 -15.05715
Si 792  -10.29030 -1.70640 -12.43464
Si 794  -10.44380 -4.04240 -14.44578
Si 796  -11.04440 -5.10430 -17.25517
Si 797  -10.28490 -7.47870 -18.94362
Si 798  -11.22101 -7.93280 -15.99220
Si 799  -9.78160 -8.73330 -13.69872
Si 800  -14.26225 -8.45030 -16.78702
Si 801  -13.78013 -10.27580 -18.44812
Si 802  -17.01392 -7.78480 -17.25614
Si 803  -15.58972 -10.02280 -14.64296
Si 804  -14.60252 -7.49250 -13.91244
Si 805  -13.16646 -7.33570 -19.46940
Si 807  -14.27769 -7.25910 -22.16330
Si 808  -12.19727 -7.27020 -23.54260
Si 809  -16.86679 -7.74210 -21.31320
Si 810  -13.85879 -10.50540 -21.31710
Si 811  -11.34256 -9.55220 -22.06650
Si 814  -17.06307 -5.59320 -19.27893
Si 816  -18.47099 -10.17460 -20.73950
Si 817  -20.55450 -9.14010 -22.96430
Si 818  -20.58820 -9.64520 -18.32117
Si 819  -20.95560 -7.07090 -17.08636
Si 821  -22.81090 -11.11630 -19.52960
Si 822  -22.25010 -8.49240 -20.46450
Si 823  -21.15880 -5.86450 -21.08870
Si 825  -25.17360 -7.98500 -21.83430
Si 827  -25.74910 -7.75460 -24.36050
Si 830  -23.86520 -5.57440 -22.55010
Si 831  -28.15780 -7.53330 -22.41770
Si 833  -26.75570 -10.24760 -20.23280
Si 835  -28.55190 -8.32060 -18.80637
Si 836  -27.54570 -13.33759 -21.04790
Si 837  -27.00280 -12.04036 -23.77280
Si 839  -28.62420 -13.28549 -18.14178
Si 840  -30.23990 -14.60525 -22.03310
Si 844  -31.67050 -15.25038 -24.64560
Si 845  -31.68590 -16.03572 -19.63070
Si 847  -28.35180 -17.27552 -22.56790
Si 849  -28.07630 -19.33000 -21.02250
Si 851  -31.05470 -17.97157 -23.97750
Si 853  -27.60900 -20.40190 -23.23500
Si 854  -28.15770 -21.20280 -25.35190
Si 855  -25.87180 -18.94388 -24.56610
Si 856  -28.25700 -22.35410 -21.02890
Si 858  -25.40850 -22.62090 -23.81830
Si 859  -25.24590 -24.04520 -26.19570
Si 860  -22.79200 -23.91850 -27.15080
Si 861  -23.88250 -26.26910 -25.45050
Si 863  -26.88190 -26.50480 -25.97490
Si 864  -28.46630 -24.03210 -26.16230
Si 865  -30.53460 -23.73800 -27.65990
Si 866  -30.85100 -25.11120 -24.91130
Si 867  -29.18980 -21.10870 -27.74230
Si 868  -27.83100 -20.92800 -30.25250
Si 869  -29.47020 -17.98745 -27.57370
Si 870  -30.75580 -21.00670 -24.88230
Si 873  -31.76460 -22.33730 -22.40440
Si 874  -32.67482 -21.73320 -27.27120
Si 875  -33.76966 -19.72150 -29.24580
Si 876  -32.67137 -24.33300 -28.98510
Si 877  -35.71853 -24.57800 -28.17810
Si 878  -33.45481 -24.71350 -32.05040
Si 882  -35.67906 -22.74940 -31.09870
Si 883  -35.29865 -20.08880 -31.83370
Si 884  -38.55506 -23.62730 -31.96990
Si 885  -36.82851 -24.22940 -34.42102
Si 886  -40.46099 -21.65760 -33.49318
Si 887  -40.89090 -22.89480 -35.85951
Si 889  -38.95666 -19.48080 -34.14478
Si 890  -42.20550 -20.04970 -35.85308
Si 891  -44.66130 -20.37030 -37.52645
Si 893  -44.25170 -17.75180 -38.11043
Si 894  -44.80970 -21.88710 -40.09185
Si 896  -47.45330 -21.61550 -36.85466
Si 897  -46.47200 -24.06330 -35.75630
Si 900  -48.46220 -22.29760 -39.61994
Si 902  -46.67210 -19.47330 -40.62700
Si 904  -45.96280 -18.39912 -42.78990
Si 905  -47.00520 -17.48620 -37.94528
Si 906  -48.79470 -15.81579 -39.30241
Si 907  -46.97930 -26.65330 -37.27347
Si 908  -46.64590 -28.64400 -39.48832
Si 910  -49.79160 -26.76810 -38.46773
Si 911  -46.35560 -25.83940 -40.53750
Si 913  -43.75010 -24.79260 -40.86030
Si 914  -42.06740 -23.04950 -39.51877
Si 916  -42.67530 -23.57580 -43.72930
Si 917  -42.16170 -25.70510 -45.77650
Si 919  -42.49380 -22.07990 -46.35540
Si 920  -40.21946 -23.54840 -47.01450
Si 921  -43.36340 -21.34840 -49.03680
Si 923  -45.39760 -19.34800 -47.81070
Si 925  -47.41830 -18.85392 -49.81370
Si 926  -44.92180 -16.51343 -49.04740
Si 927  -45.67040 -17.20749 -51.55930
Si 928  -44.61280 -14.32068 -52.27330
Si 930  -45.66780 -12.79731 -50.13030
Si 931  -44.86850 -10.73910 -51.88650
Si 932  -44.62020 -10.77730 -47.97800
Si 933  -47.83750 -10.79770 -51.72580
Si 934  -50.55240 -10.35410 -53.16180
Si 935  -45.10630 -11.76553 -45.50420
Si 937  -42.38820 -9.27690 -46.85270
Si 938  -45.49940 -7.66780 -48.53830
Si 939  -43.27960 -6.49410 -47.76690
Si 940  -43.66050 -8.23010 -50.67480
Si 941  -47.62880 -6.13870 -50.24150
Si 942  -47.99410 -3.97450 -51.58260
Si 943  -40.68580 -9.30180 -51.02820
Si 944  -42.31360 -5.05890 -50.18340
Si 945  -40.30348 -2.67240 -50.11300
Si 947  -41.89760 -11.91530 -51.42640
Si 948  -41.60360 -10.58370 -53.60610
Si 950  -39.02115 -7.36130 -53.05970
Si 953  -36.90618 -5.94300 -54.52703
Si 954  -38.77997 -10.24230 -54.72010
Si 955  -37.76560 -12.57447 -54.33307
Si 957  -38.82844 -12.27380 -57.20258
Si 958  -38.02503 -11.89342 -51.85270
Si 959  -36.57131 -14.12020 -57.93886
Si 961  -34.00110 -12.65849 -57.61546
Si 962  -31.63320 -12.51392 -58.76669
Si 964  -34.92628 -12.83720 -54.77567
Si 965  -33.16031 -14.39043 -59.94184
Si 966  -31.68840 -11.53966 -55.71751
Si 967  -35.69845 -13.31718 -61.30693
Si 969  -31.91740 -11.40960 -61.16255
Si 970  -29.38190 -10.65630 -59.22155
Si 971  -34.34848 -10.46840 -52.88450
Si 972  -33.45422 -12.67044 -51.95800
Si 974  -31.11550 -14.49362 -52.09060
Si 976  -32.15610 -17.23524 -51.01500
Si 977  -32.35090 -19.58620 -52.79360
Si 978  -33.49776 -16.99561 -53.74500
Si 979  -29.73550 -18.75639 -52.37850
Si 980  -35.40198 -6.25070 -52.02130
Si 982  -38.80461 -6.47480 -56.83414
Si 983  -35.72830 -4.72180 -57.44817
Si 984  -40.92960 -12.60259 -48.70760
Si 985  -45.80330 -14.65238 -44.97840
Si 986  -44.80180 -14.37949 -41.81070
Si 987  -43.09650 -13.34013 -39.20220
Si 989  -48.37550 -16.89159 -47.66380
Si 990  -49.17680 -13.95172 -47.17140
Si 991  -38.04074 -21.56570 -48.14040
Si 992  -32.19290 -19.41540 -21.87220
Si 994  -31.74640 -25.21310 -20.94600
Si 995  -34.37592 -20.77010 -23.50960
Si 996  -35.22890 -18.01880 -23.21050
Si 997  -34.61395 -15.75486 -25.14410
Si 1000 -33.77633 -13.25628 -25.08550
Si 1002 -35.80216 -11.19980 -26.39930
Si 1003 -30.55690 -26.88290 -23.02950
Si 1004 -31.97170 -27.71940 -25.55190
Si 1006 -29.71560 -29.87270 -25.87420
Si 1007 -29.16140 -31.46260 -23.09320
