131
Lattice="22.9629 0.0 0.0 0.0 22.9629 0.0 0.0 0.0 22.9629"
Si 672  18.93670 9.11766 21.55300
Si 680  19.70970 7.73757 18.91900
Si 687  20.03590 9.05921 24.32923
Si 717  20.58490 10.42220 19.60310
Si 721  16.32310 9.02661 21.15300
Si 766  17.06440 6.86511 22.93430
Si 820  16.58320 7.79381 18.62600
Si 824  14.54780 10.66850 21.75060
Si 877  14.89580 10.15660 18.66750
Si 878  17.18160 5.29868 17.47140
Si 893  14.67620 5.41359 16.94680
Si 896  14.69660 7.13635 14.44160
Si 907  13.58580 2.95062 15.59090
Si 921  12.02510 5.81806 18.31820
Si 961  12.05100 4.00828 13.64940
Si 964  11.81230 1.13132 16.03640
Si 972  13.43890 1.56747 18.30190
Si 988  9.02485 1.37246 16.89310
Si 990  12.35200 0.50970 13.07110
Si 675  18.63170 17.83860 8.78534
Si 826  16.34090 15.86450 8.06032
Si 886  19.92960 17.11880 6.01532
Si 912  19.18130 20.64630 7.89108
Si 929  17.84690 20.78450 10.10540
Si 676  0.15390 18.78280 0.11030
Si 692  2.94730 17.90140 -0.56980
Si 703  -1.14450 16.20450 0.04080
Si 706  0.83140 18.28530 3.13067
Si 710  1.60552 21.42970 0.44630
Si 714  -1.36710 20.88030 0.29680
Si 736  -2.24000 19.33440 -1.55900
Si 744  0.44180 19.63100 -3.37210
Si 746  -4.04440 21.29680 -1.97020
Si 756  -3.69150 19.35410 -4.23070
Si 759  -1.50950 17.32220 -5.56790
Si 768  1.11341 16.66380 -4.36620
Si 831  0.04030 18.22500 -8.05970
Si 834  -2.39820 15.30260 -7.64550
Si 835  -4.29660 13.07810 -8.74150
Si 842  -6.51040 14.16450 -7.28040
Si 844  -2.90220 11.06880 -9.61350
Si 847  -4.86470 10.66990 -7.01640
Si 849  -2.57170 8.90989 -7.43270
Si 855  -1.31370 8.69375 -9.99190
Si 862  -0.28860 11.35840 -10.51650
Si 866  -5.32170 9.82805 -11.13150
Si 891  -2.22060 23.31440 -0.86440
Si 892  -5.55370 19.63260 -0.01870
Si 910  -6.38420 21.99250 -1.89240
Si 917  -9.32750 21.24550 -2.10310
Si 930  -5.65290 24.87318 -3.19490
Si 938  -7.43310 24.20396 -0.49180
Si 944  -6.18170 25.77083 1.51449
Si 973  -8.01420 26.29889 -2.56770
Si 976  -9.89020 24.05245 1.47791
Si 983  -2.63100 22.90270 2.12173
Si 679  20.29410 14.75660 9.58312
Si 691  18.57620 13.68100 11.76170
Si 821  22.19640 12.20110 9.43669
Si 927  18.23970 12.50830 9.17373
Si 935  15.84860 14.99180 10.71300
Si 681  18.04080 5.21845 10.02220
Si 682  19.54610 3.28019 11.86470
Si 693  20.34710 7.54010 10.48120
Si 696  19.70620 4.86803 7.51692
Si 702  17.10230 6.47682 7.38461
Si 719  15.50450 6.21334 9.87534
Si 720  17.06920 6.63494 12.53270
Si 741  13.82120 3.83698 9.13232
Si 754  12.86660 5.16533 11.36690
Si 770  15.59090 9.63121 9.72446
Si 776  19.03940 3.30641 4.84165
Si 779  22.17850 4.78982 7.16808
Si 788  21.55540 3.25879 9.65716
Si 792  22.68730 0.60190 10.01170
Si 832  22.45130 1.80187 7.32447
Si 839  24.36858 4.23543 6.37158
Si 843  24.89909 0.01180 7.14894
Si 845  21.53140 0.30250 4.82251
Si 868  19.63570 0.54140 7.12275
Si 887  25.91561 2.29707 5.78123
Si 936  27.54018 0.94860 8.08652
Si 953  28.10848 1.14599 5.09148
Si 955  28.09477 -1.50780 3.95792
Si 956  30.40526 1.61456 2.99435
Si 960  31.11440 1.57038 5.86679
Si 968  24.52605 3.41762 3.32938
Si 992  22.82030 5.66383 4.10240
Si 998  26.84053 5.66308 7.11901
Si 1001 22.97380 7.07868 8.76214
Si 689  8.98776 12.26110 20.86580
Si 782  6.38859 14.04790 21.45550
Si 796  7.79159 9.54600 20.27140
Si 797  11.36290 10.44700 21.70040
Si 828  9.99742 12.14070 23.50950
Si 966  8.04599 12.55190 18.30560
Si 695  11.94430 21.38060 15.74340
Si 875  10.00750 19.75270 17.23560
Si 882  12.26240 19.17660 13.76620
Si 905  14.83780 22.00010 17.13000
Si 933  8.90113 21.67920 15.44550
Si 705  12.94570 12.98090 7.92336
Si 723  10.93080 10.82700 8.26948
Si 732  15.81810 11.57400 7.56255
Si 840  13.31830 13.95830 10.99950
Si 841  13.72550 13.93840 5.28328
Si 880  11.79020 15.10010 6.45502
Si 888  10.31500 14.99400 9.00611
Si 932  10.96420 17.90740 6.87012
Si 981  9.69282 14.19400 4.53228
Si 707  4.35776 19.31920 9.30095
Si 725  5.93125 21.94470 9.77841
Si 734  2.87277 17.10030 10.91370
Si 793  2.61637 20.14710 7.69398
Si 861  6.40121 18.13210 7.58405
Si 869  1.38706 21.03060 10.09650
Si 890  -0.76460 19.63460 8.08151
Si 898  -2.05590 17.34880 9.86338
Si 949  -0.01790 16.12460 10.98460
Si 984  -1.55550 18.89150 12.30440
Si 996  0.18930 15.31970 13.84890
Si 1004 1.58192 13.70740 9.45769
Si 708  2.81074 3.94572 15.38430
Si 718  3.27472 6.51873 15.29310
Si 752  1.03579 1.88566 16.28240
Si 772  3.42965 2.39952 12.67880
Si 802  4.05340 2.05811 17.70030
Si 854  5.85672 5.37717 14.41870
Si 908  0.97770 7.12129 13.22410
Si 943  3.28084 7.09042 18.13400
Si 979  4.43428 8.91101 13.65490
