142
Lattice="21.8375 0.0 0.0 0.0 21.8375 0.0 0.0 0.0 21.8375"
O 1   6.18738 0.03430 17.35260
O 29  7.42911 1.45470 18.65040
O 118 5.20477 2.02899 16.23260
O 142 7.11661 0.38120 20.57300
O 185 5.74226 -1.08330 21.93760
O 223 3.20149 -1.40470 22.13350
O 327 4.74429 -3.44760 23.51399
O 409 3.20886 -1.66910 19.71690
O 438 1.88600 0.88470 21.65330
O 441 -0.19210 0.74070 22.49150
O 468 1.37420 0.18150 19.45720
O 520 2.67970 1.62988 23.95529
O 634 1.93527 3.01299 26.07582
O 654 1.19440 1.11010 27.11080
O 659 -0.98290 -0.36600 20.49890
O 6   11.00440 20.05210 14.60220
O 19  10.75760 18.69690 12.76030
O 28  12.99970 18.62070 15.31400
O 30  13.03810 18.85820 13.07330
O 48  12.02030 16.86790 13.28810
O 49  15.66950 18.34770 12.96320
O 50  13.69610 14.96110 13.75580
O 67  15.49420 14.79130 15.13540
O 89  16.78390 13.58130 13.73230
O 97  16.68030 14.12890 17.50360
O 107 17.56310 11.26160 13.81040
O 111 17.12910 13.71420 11.26220
O 116 18.83710 12.81720 12.32300
O 122 20.27310 11.63040 13.91840
O 128 22.03190 13.04690 13.24070
O 144 21.62460 9.07042 13.82360
O 148 23.50636 10.59240 13.13530
O 154 24.73921 9.33438 14.46230
O 162 26.38005 10.72230 14.89410
O 164 25.46685 7.67586 16.03200
O 167 24.27340 5.88433 16.62890
O 169 25.68134 6.01687 14.04890
O 174 23.76357 5.00375 14.65400
O 178 25.56828 3.82367 13.21540
O 201 27.50027 4.47863 12.39820
O 202 28.00350 2.89211 10.82020
O 212 29.09399 0.77780 12.03730
O 214 31.61232 1.65230 11.57980
O 225 34.12830 0.88850 11.27120
O 229 36.00070 1.76980 10.44590
O 230 35.92430 -0.70470 10.59000
O 235 34.32460 3.55575 10.31740
O 238 34.02690 5.95096 10.60900
O 239 35.75380 5.54090 9.30524
O 250 33.36740 5.08794 8.36837
O 260 34.56220 1.61633 8.32846
O 264 35.05790 4.81745 12.71900
O 277 33.69280 5.20607 14.75230
O 281 32.07800 3.74324 14.51080
O 325 32.13650 5.99411 16.15890
O 329 33.61880 -0.54570 6.71446
O 343 31.67420 -0.51680 7.90981
O 349 36.72220 7.96651 10.12400
O 363 35.10660 8.54346 11.80290
O 369 34.84460 11.01790 11.93490
O 370 37.20390 -0.45320 12.33660
O 373 38.24020 1.00430 10.83230
O 381 38.22480 2.79770 9.61117
O 386 38.88980 3.11229 11.81790
O 389 39.85110 1.43100 8.93605
O 392 36.75710 1.98984 12.67320
O 396 37.78780 0.62780 14.57160
O 398 39.05510 0.98530 6.88578
O 412 42.17820 0.70750 8.52019
O 423 40.83480 -0.51320 6.85289
O 432 39.95930 -0.15200 4.40530
O 434 42.35520 -2.77240 7.40746
O 439 38.31870 -1.61450 6.16427
O 449 37.23460 -3.91000 5.61656
O 455 36.11970 -5.45290 4.44962
O 464 39.07640 -4.98270 4.57856
O 476 38.02240 -6.82030 3.90151
O 477 40.99660 -5.41520 3.03903
O 478 39.58190 -6.83190 1.99949
O 479 40.42590 -6.81350 -0.14210
O 491 37.94350 -6.34180 0.24420
O 496 36.76280 -8.60750 0.61890
O 503 35.66280 -10.49320 1.18880
O 507 36.12280 -9.03320 -1.52120
O 508 35.89050 -7.64280 2.93258
O 510 36.81210 -9.74750 3.09426
O 514 34.04650 -6.72770 4.43387
O 519 33.91100 -5.90540 2.38214
O 526 32.20740 -4.48680 2.79873
O 529 29.93795 -4.70340 1.84399
O 543 34.04190 -2.49960 2.31709
O 544 34.60530 -0.58380 1.26910
O 554 41.65340 -5.96090 -2.32650
O 555 42.91020 -7.76150 -0.78870
O 567 42.88930 -3.98510 9.80941
O 568 42.23290 -4.65200 11.95220
O 582 39.76490 2.39652 4.36701
O 586 43.15010 2.77019 9.55821
O 588 24.26709 6.33103 19.10540
O 592 24.07419 8.08717 20.85490
O 612 24.72710 4.10406 20.34570
O 614 23.13660 9.05839 22.74850
O 637 23.87518 8.73803 25.16291
O 639 24.26591 7.52858 26.92130
O 650 25.84697 9.81018 24.97666
O 669 25.73726 9.61734 27.45828
O 11  1.82113 7.99977 9.15661
O 40  0.93980 6.52518 10.49840
O 401 3.00014 5.88675 9.38244
O 560 -0.22340 6.51408 8.58663
O 576 -2.22240 6.80354 9.44943
O 620 -3.54900 5.76264 8.00986
O 24  4.63915 14.19090 12.21740
O 55  4.10992 14.14120 9.77725
O 96  1.93188 14.21950 8.45330
O 113 3.71543 14.16260 7.11147
O 248 4.81332 16.02260 7.96316
O 301 3.28943 12.00380 8.32561
O 358 4.92706 16.69590 5.79845
O 422 2.81201 16.53540 6.98603
O 430 5.97192 18.36490 7.04511
O 565 1.34250 13.63350 6.00054
O 667 -0.86900 13.56660 5.52168
O 32  10.75020 9.83470 18.73920
O 77  12.31540 8.95544 17.43880
O 100 10.65840 12.09770 18.24730
O 105 9.05875 13.86910 18.11080
O 133 12.25700 10.75830 16.19130
O 284 6.95055 13.01640 19.23080
O 498 7.09325 14.81440 20.84670
O 617 7.48465 12.55870 21.96380
O 38  17.69140 6.78465 1.96961
O 159 15.52350 7.32166 1.62835
O 57  17.64230 1.23990 17.60820
O 265 15.98990 1.07010 19.47320
O 504 14.63600 -0.52070 18.36990
O 188 8.06439 12.00040 9.70010
O 462 8.08482 12.90700 7.71172
O 207 10.56500 5.71511 3.84901
O 257 13.19930 5.41136 4.57225
O 216 20.53390 1.79020 15.90620
O 259 20.85790 -0.75340 15.34730
