264
Lattice="21.8375 0.0 0.0 0.0 21.8375 0.0 0.0 0.0 21.8375"
Si 673  21.28950 19.97580 21.16810
Si 674  20.33490 18.54190 23.13680
Si 675  22.04880 18.78570 18.26580
Si 676  19.23680 21.96250 20.52160
Si 677  23.44242 19.85100 22.73080
Si 678  25.28160 17.46190 23.48392
Si 679  23.10160 22.62320 23.25020
Si 681  20.20620 22.82200 23.29920
Si 682  23.84580 23.32540 25.55185
Si 684  25.83864 24.42344 23.86057
Si 686  27.88992 24.96779 22.08810
Si 687  24.27625 26.20470 21.89990
Si 688  23.20520 29.24695 22.36230
Si 689  23.67307 26.73016 19.28540
Si 690  25.94408 24.84104 19.39820
Si 691  23.76288 22.93150 18.13000
Si 693  27.54368 26.83139 18.03020
Si 695  27.76662 27.67369 21.01700
Si 696  28.21399 29.67710 17.21780
Si 698  30.15507 25.89969 17.92260
Si 700  30.97107 28.67233 16.91080
Si 701  29.83633 23.79300 20.21140
Si 702  32.71980 26.21720 16.01570
Si 703  33.56620 24.04770 17.88360
Si 705  33.14620 28.64363 15.03010
Si 706  30.63623 26.18056 13.94830
Si 707  33.45970 26.17901 13.34100
Si 709  34.45640 23.34840 14.24190
Si 710  36.48300 27.56642 13.12990
Si 711  37.08420 27.57186 16.07800
Si 712  38.93550 26.73300 11.62380
Si 713  36.61200 29.77611 11.95850
Si 714  38.35340 31.99770 13.01250
Si 715  34.29010 31.46831 12.57600
Si 716  37.55820 30.50632 8.96999
Si 719  39.81260 28.47997 9.57879
Si 720  42.93000 28.55680 10.21150
Si 722  41.90670 27.85822 8.00079
Si 723  41.03680 30.36936 11.44620
Si 724  39.19710 26.93793 6.89215
Si 725  38.98840 25.69181 4.35132
Si 727  38.49400 23.96831 8.06838
Si 729  35.47100 24.18320 7.11440
Si 731  38.90310 21.62600 5.73930
Si 732  40.79040 22.83000 7.63855
Si 733  41.30740 24.27742 5.12322
Si 734  43.33680 22.91900 9.51480
Si 735  46.36498 22.09910 8.75642
Si 736  41.88950 21.95450 11.88520
Si 737  43.66110 25.39475 8.21244
Si 738  42.17380 25.49420 10.61380
Si 739  43.53370 25.56399 13.17400
Si 740  46.21509 26.73486 13.07420
Si 741  43.22730 22.78500 14.67290
Si 742  45.84930 21.71020 13.83390
Si 743  43.22280 24.60582 16.93390
Si 744  40.94530 23.34850 16.72880
Si 745  42.00090 20.69790 16.74020
Si 746  43.51180 20.09360 14.36900
Si 747  41.73540 17.70720 13.35020
Si 748  43.71260 16.78340 11.15480
Si 749  41.30290 16.98640 10.50010
Si 750  41.23360 15.41840 15.38760
Si 751  38.90000 18.65060 13.75450
Si 753  39.81280 18.45820 16.68980
Si 756  37.72990 21.05910 13.83510
Si 757  37.15660 17.13370 11.84320
Si 758  36.08890 18.59420 14.23890
Si 760  36.30380 15.85130 15.69460
Si 761  34.94070 19.02640 16.85540
Si 762  34.74040 17.78930 19.31880
Si 763  37.57290 20.06920 17.96910
Si 765  38.56410 22.47870 16.26110
Si 766  36.31450 23.01170 18.18820
Si 767  39.42240 19.31400 19.65630
Si 770  37.15260 18.80490 20.73180
Si 771  37.52300 16.83850 22.92860
Si 772  39.29710 18.88740 24.26918
Si 773  39.01930 14.24250 22.25130
Si 774  40.50340 11.64820 22.55450
Si 776  41.50050 14.58470 20.52680
Si 777  40.90180 15.75470 23.20310
Si 778  39.68060 15.54190 25.42272
Si 779  41.25500 13.13880 26.87401
Si 782  42.44190 16.79530 25.58049
Si 784  38.67740 18.77430 27.29303
Si 786  37.06110 13.44700 25.87196
Si 787  38.83780 11.78970 27.69926
Si 788  36.34160 10.63880 24.33597
Si 789  34.68290 14.44000 27.63177
Si 791  32.90330 12.05420 27.98414
Si 792  31.29324 12.31770 30.59173
Si 793  31.11146 15.04170 31.82184
Si 794  33.79230 11.60870 32.37760
Si 795  29.09625 10.96600 32.57580
Si 796  28.91702 11.73850 30.12272
Si 797  29.63152 14.14650 28.51548
Si 798  26.64031 15.02770 28.07073
Si 799  25.11234 15.31320 25.45842
Si 801  27.93467 17.31900 26.58316
Si 803  27.53763 19.81420 27.97600
Si 804  28.33604 17.54390 23.62495
Si 805  29.55950 15.93780 21.94470
Si 809  30.87736 18.31150 24.38528
Si 810  27.21618 19.92120 23.33880
Si 811  26.07315 21.14780 25.79853
Si 812  29.16343 21.08770 21.70910
Si 813  30.78329 22.15100 24.20837
Si 814  30.27331 18.42590 20.19670
Si 815  28.73377 21.72580 18.86070
Si 816  31.57835 21.71100 18.06170
Si 817  27.95173 20.90540 16.08190
Si 818  25.69271 19.23260 14.81380
Si 819  29.23409 21.29240 13.14870
Si 821  26.73345 19.68330 12.00090
Si 823  31.93040 20.12030 13.29460
Si 825  28.55656 23.19320 10.58520
Si 827  29.88261 23.72542 13.07310
Si 828  31.33906 24.07433 10.02290
Si 829  32.54940 22.13930 11.14680
Si 830  31.04521 20.45000 9.08346
Si 832  34.33680 23.77297 9.94332
Si 833  29.19704 18.56920 8.03375
Si 834  28.83128 16.58830 10.47700
Si 835  25.92396 15.49940 10.97720
Si 837  24.36823 17.64960 12.10130
Si 838  26.05814 12.52140 9.47396
Si 839  25.30510 13.04840 12.03560
Si 840  27.30738 14.58800 13.62130
Si 841  22.90190 14.39330 12.83810
Si 842  25.20710 10.65590 13.56970
Si 843  26.79279 9.05008 11.28720
Si 844  26.19604 9.09512 15.39220
Si 845  26.45467 11.52860 16.38600
Si 847  24.51593 11.26650 18.38790
Si 848  28.41760 11.70930 18.37390
Si 849  27.64994 9.28531 19.71440
Si 850  29.73034 14.36300 19.43720
Si 851  31.34024 10.78210 18.37500
Si 852  33.63550 10.61970 17.72790
Si 853  33.13250 8.17408 18.63500
Si 854  31.31716 10.01770 21.25560
Si 855  32.32660 13.52930 19.14680
Si 856  30.95888 11.16160 15.33600
Si 857  33.75550 11.91280 15.15180
Si 858  30.86222 14.11940 16.52000
Si 859  28.39781 15.65150 17.14930
Si 861  34.75170 9.19698 15.81670
Si 863  35.83660 11.91350 12.85480
Si 866  34.19140 14.35970 17.06070
Si 869  36.01230 12.49390 18.76620
Si 870  36.26970 11.65080 21.46190
Si 871  38.65390 12.48010 17.30290
Si 872  40.65470 11.82990 19.52040
Si 873  37.83230 15.42930 18.32440
Si 875  40.54730 16.89760 18.74660
Si 876  43.23090 15.97820 19.08000
Si 877  44.61990 14.53730 20.82610
Si 879  43.18820 13.54400 22.84970
Si 880  46.82697 13.40410 20.22790
Si 881  47.16495 16.24110 20.53670
Si 882  47.73467 13.42970 23.12880
Si 883  48.84624 10.99330 24.71734
Si 884  50.45046 10.61990 27.27023
Si 885  50.58173 11.00740 22.11440
Si 886  47.04373 8.74531 26.17301
Si 887  47.16667 10.62430 28.75836
Si 888  48.88105 8.60037 28.82772
Si 890  48.43855 7.37546 24.29415
Si 891  45.05630 7.20884 25.44151
Si 894  46.69105 6.50686 28.06741
Si 895  42.48910 7.39402 27.00404
Si 897  44.85180 4.54388 25.90474
Si 898  44.91780 2.71811 27.70931
Si 899  47.69913 2.54022 29.21261
Si 900  44.70980 -0.28380 28.00151
Si 901  47.65847 4.72731 31.45574
Si 902  49.17156 0.19120 29.93740
Si 903  50.29566 4.59490 32.65390
Si 907  48.34399 3.22311 33.82480
Si 908  47.17329 0.65510 33.51210
Si 909  48.78759 5.10717 35.69110
Si 910  50.12013 7.75485 35.31700
Si 912  53.20209 7.45092 35.35660
Si 913  52.23824 6.89097 32.55560
Si 916  53.44320 9.16477 33.02630
Si 917  55.50470 9.17854 30.74119
Si 918  51.42670 8.61081 30.15608
Si 919  51.30838 4.49188 29.62304
Si 920  41.02440 6.79415 24.38972
Si 921  42.48650 9.65407 28.72871
Si 922  43.77710 12.39060 27.96722
Si 923  44.98780 9.39879 30.48502
Si 925  44.20250 11.46130 24.93647
Si 926  44.17000 14.74560 26.95762
Si 927  45.00320 17.15850 28.40631
Si 928  43.41020 18.75960 30.50478
Si 930  41.63430 18.78050 27.78159
Si 931  41.59420 21.42890 25.96937
Si 934  38.89580 22.98050 25.38674
Si 935  38.09640 21.34600 23.16120
Si 937  36.22850 24.10819 24.20009
Si 938  36.29440 26.42141 25.91553
Si 939  34.87480 22.48070 22.08370
Si 940  33.01980 20.38720 23.18020
Si 941  35.34420 20.44650 24.64454
Si 942  32.56690 24.00609 20.92650
Si 943  34.75610 20.56750 27.71179
Si 944  33.70140 17.72700 24.08050
Si 945  35.61800 18.00200 26.54029
Si 946  34.15070 16.13500 21.66370
Si 947  33.01440 13.58160 21.85390
Si 948  30.34230 13.16760 23.05200
Si 951  37.15680 20.25210 29.40855
Si 952  37.74360 17.52650 30.72704
Si 953  37.65310 21.37480 32.27940
Si 955  34.94610 20.22310 31.52598
Si 957  40.31570 19.91490 32.22050
Si 958  32.87010 19.91750 20.08050
Si 962  38.22360 27.61960 24.00952
Si 963  38.20160 26.44720 21.43310
Si 964  38.59120 30.34971 23.69894
Si 965  35.85750 29.39519 23.07090
Si 968  34.19060 31.28067 21.26090
Si 971  39.63320 30.87512 26.67163
Si 972  38.79180 31.57658 20.94790
Si 973  39.64630 30.43961 18.20310
Si 974  37.67460 29.11126 19.75350
Si 975  35.29340 28.05382 18.49390
Si 976  35.85780 25.44191 20.22040
Si 977  37.91450 30.64431 15.74910
Si 978  42.10530 7.94372 22.02020
Si 979  43.07550 10.21890 20.33760
Si 980  45.75192 9.84855 21.22810
Si 981  43.93900 8.42214 17.97200
Si 982  46.62079 7.13313 17.59220
Si 983  47.20859 7.43104 20.16560
Si 984  45.39333 4.31304 16.24970
Si 985  47.31983 1.60247 15.94080
Si 986  37.15320 14.48780 13.45010
Si 987  34.05710 15.29670 13.09180
Si 989  39.06620 12.52250 12.56630
Si 990  42.17170 13.18660 13.15400
Si 993  40.60430 14.15910 11.19020
Si 994  37.68790 13.84770 10.20980
Si 996  40.87440 10.58370 13.98910
Si 997  34.87410 14.46680 10.13190
Si 999  41.52310 14.70910 8.45778
Si 1000 44.15120 14.17540 9.23033
Si 1001 32.06860 13.62210 12.50450
Si 1002 25.66123 19.22700 9.69411
Si 1003 30.30894 20.39910 26.63310
Si 1004 39.17490 23.75236 19.09750
Si 1005 37.20700 24.01600 14.27020
Si 1006 39.43700 25.94694 15.51700
Si 721  9.54961 6.36314 2.59585
Si 878  7.71517 8.07645 2.41201
Si 893  9.78501 5.02569 -0.08460
Si 896  10.50420 4.25303 4.50226
Si 961  8.25348 7.49859 -0.50380
Si 768  15.78540 16.24600 5.11099
Si 831  17.12870 15.13090 7.60603
Si 865  1.45310 8.85465 13.62000
Si 1007 -1.54340 8.31380 14.45720
