6
Lattice="24.2071 0.0 0.0 0.0 24.2071 0.0 0.0 0.0 24.2071"
Si 927 20.822799999999997 18.5067 21.0744
O 184 22.408799999999996 18.561000000000003 20.639099999999996
O 309 20.1683 17.353199999999998 20.0429
O 333 20.285300000000003 18.9622 22.517499999999995
O 482 20.3276 19.8642 20.3214
O 617 21.246199999999998 16.9085 22.392499999999995
