9
Lattice="22.0027 0.0 0.0 0.0 22.0027 0.0 0.0 0.0 22.0027"
O 24  0.19090 14.82180 14.46560
O 55  -0.34460 14.71200 11.86600
O 96  -0.76190 14.51840 9.42448
O 113 -2.60540 14.69070 10.73970
O 248 0.26950 16.49970 10.01340
O 301 0.43510 17.10300 7.78483
O 422 1.60524 18.77290 9.16864
O 565 -3.26540 14.07030 8.29919
O 667 -5.51810 13.94690 7.80218
