262
Lattice="22.0027 0.0 0.0 0.0 22.0027 0.0 0.0 0.0 22.0027"
Si 674  21.76440 9.36130 17.67060
Si 675  21.94270 11.77850 18.60680
Si 676  20.88810 10.99360 15.73710
Si 677  24.00708 8.14005 19.32480
Si 678  23.90466 8.04873 15.58820
Si 679  20.22420 7.40449 19.80800
Si 681  21.06620 7.86966 22.45880
Si 682  17.67480 8.89655 20.18710
Si 684  19.02220 5.13542 21.49410
Si 685  19.21030 4.58650 18.43580
Si 686  17.19920 2.96647 19.09850
Si 687  21.35070 2.06994 18.43890
Si 688  20.17680 5.33343 15.18410
Si 689  22.72310 5.34453 15.88680
Si 690  17.65210 4.19289 15.27670
Si 691  22.27210 3.65303 13.94280
Si 692  24.10918 5.02992 12.78160
Si 693  21.43830 5.30120 11.73670
Si 694  24.24457 1.90177 12.53060
Si 695  21.01460 0.90660 13.76100
Si 696  19.92050 0.41360 16.34480
Si 698  20.13850 0.50100 10.69890
Si 700  22.94310 0.53130 10.17430
Si 701  21.44330 2.95255 9.46195
Si 702  18.49940 0.04100 8.16803
Si 703  17.22520 1.25540 11.47170
Si 705  21.48650 -2.16740 11.86540
Si 706  19.93550 -3.83750 14.10240
Si 707  22.05720 -3.97090 9.28867
Si 708  22.25580 -6.49270 8.52791
Si 709  23.37510 -1.71230 8.16877
Si 710  23.67168 -4.37000 6.77626
Si 711  24.97911 -3.06910 9.99492
Si 713  19.95270 -2.44820 7.27846
Si 714  18.73770 -4.53040 8.89017
Si 715  17.76300 -6.71900 7.48684
Si 716  17.20570 -2.99000 10.90940
Si 718  15.72750 -2.93050 7.91354
Si 719  14.94370 -4.69750 12.69250
Si 720  17.45260 -5.12260 13.63780
Si 722  15.45550 -4.13640 15.57330
Si 723  18.65060 -7.38050 15.17190
Si 724  21.12600 -8.43670 14.25120
Si 725  15.96160 -8.55340 15.30770
Si 726  14.38370 -7.49430 13.45630
Si 727  14.69120 -11.13500 16.02730
Si 729  12.82360 -9.20020 14.75220
Si 731  14.91120 -6.42170 17.62260
Si 732  12.42430 -7.84960 17.56680
Si 733  12.41970 -9.23900 19.53220
Si 734  10.81050 -7.28010 15.72830
Si 736  10.11130 -5.83840 18.09230
Si 737  8.10091 -7.33140 19.37280
Si 738  11.72800 -6.29750 20.68190
Si 739  9.90911 -3.13310 16.45630
Si 740  12.65650 -2.95400 15.94640
Si 741  10.86940 -4.64160 14.13050
Si 742  8.67175 -2.51250 19.06860
Si 743  11.47590 -0.50860 15.95280
Si 744  11.83680 0.02780 13.04260
Si 745  9.31778 0.47770 14.14630
Si 746  12.60490 1.05500 18.28240
Si 747  11.26930 2.58727 16.75550
Si 748  13.51770 4.42260 17.72990
Si 749  8.29196 1.79653 16.52880
Si 750  7.29975 4.51232 15.61840
Si 751  6.50847 4.62332 18.14940
Si 752  6.83428 7.03627 17.04100
Si 753  4.36509 4.73991 16.07690
Si 755  6.48991 5.18770 12.52250
Si 756  10.30100 5.90341 15.28390
Si 757  10.30790 8.10458 14.02200
Si 758  11.07180 5.85458 18.13150
Si 759  12.95290 5.28830 13.79440
Si 760  13.54250 7.29095 11.90490
Si 762  15.82390 3.60031 12.84550
Si 765  17.15680 4.00459 10.55330
Si 766  16.63160 6.73351 12.34060
Si 768  15.46460 6.38802 10.06450
Si 770  15.00780 8.91705 13.52680
Si 771  12.83290 5.20548 8.90591
Si 772  16.35660 7.70845 7.25321
Si 774  16.35530 10.04030 8.77213
Si 775  18.85150 7.36139 5.59739
Si 777  20.79660 9.06946 6.33343
Si 778  18.91220 4.59560 5.88761
Si 779  18.75060 7.60731 2.55231
Si 781  20.43430 6.87466 8.30018
Si 782  19.45170 9.98084 1.45130
Si 783  15.82660 7.94250 2.10981
Si 784  19.78840 4.55612 2.06203
Si 787  21.46480 2.80833 3.99791
Si 788  21.36020 3.41861 -0.49230
Si 789  19.54140 1.26950 -1.49690
Si 791  23.18240 5.43526 -1.73940
Si 792  23.39120 3.35381 2.00837
Si 793  25.43135 2.10923 0.30060
Si 794  24.33554 0.12510 -0.91590
Si 795  28.30863 2.61648 0.72400
Si 796  25.84586 4.03502 -2.24640
Si 797  24.98736 -0.68820 1.91533
Si 798  22.57880 -1.59750 3.34128
Si 799  26.48998 0.62390 4.41463
Si 801  28.86782 -1.18670 3.38668
Si 802  26.07269 -1.30180 6.93802
Si 803  27.67404 0.43590 8.22556
Si 804  26.69790 -3.39630 4.73764
Si 805  29.20564 -3.42650 4.49914
Si 806  23.85166 -3.82240 3.83397
Si 809  28.39146 -5.82330 5.91849
Si 810  26.62475 -8.36000 6.29889
Si 811  26.35066 -5.00960 8.22079
Si 812  30.47942 -7.07320 8.11961
Si 814  28.68294 -9.38320 8.55661
Si 815  30.55371 -5.04590 10.47660
Si 816  32.74130 -8.13460 6.24558
Si 817  33.41060 -5.52280 7.29544
Si 818  35.33610 -6.24080 5.71322
Si 819  34.78660 -3.31030 7.64575
Si 821  31.52379 -3.60460 6.95729
Si 825  34.77930 -6.29850 9.84192
Si 827  37.28460 -6.98100 10.64590
Si 828  33.55060 -7.76570 12.36750
Si 829  30.62815 -7.22850 12.59160
Si 830  29.53679 -10.04710 12.77740
Si 831  29.80154 -6.52270 15.55100
Si 832  27.66340 -8.16740 14.84870
Si 833  26.83215 -6.45700 12.24780
Si 834  24.53063 -4.85840 12.54620
Si 835  28.37075 -3.96210 11.87100
Si 837  26.97139 -9.30430 11.10400
Si 838  24.49016 -9.91190 10.28320
Si 840  24.70468 -10.64760 13.02850
Si 841  25.20638 -7.53640 8.77707
Si 842  22.43910 -12.55497 13.24470
Si 843  27.28503 -12.36597 13.35370
Si 844  25.21855 -12.98682 10.53060
Si 845  26.20745 -14.83102 12.92350
Si 847  26.97937 -14.11738 15.67410
Si 848  30.00249 -12.18873 14.62140
Si 849  29.33822 -12.48019 11.08720
Si 850  31.26088 -14.88086 12.08950
Si 851  30.60535 -16.62742 9.97064
Si 852  33.30710 -13.12736 10.92750
Si 853  27.93092 -16.24179 9.34101
Si 855  31.12361 -19.72129 9.36976
Si 856  30.65602 -19.87845 12.27270
Si 858  29.85979 -20.26674 6.51218
Si 859  34.22320 -19.73665 10.21140
Si 860  36.52320 -20.99460 9.81338
Si 861  34.53940 -22.23930 7.98455
Si 863  34.53130 -20.94590 5.76773
Si 866  37.25170 -22.25060 6.36177
Si 867  36.92900 -19.48297 7.24087
Si 869  37.98180 -21.00000 3.71844
Si 870  40.89270 -21.05420 3.57409
Si 871  36.97470 -21.66150 0.84460
Si 872  38.86920 -23.94850 1.25840
Si 876  35.10800 -19.84251 -0.65630
Si 877  35.32390 -24.12340 -0.43640
Si 880  33.35810 -23.22910 -2.04590
Si 881  36.25930 -26.65370 -1.12200
Si 882  33.07720 -24.79920 1.13480
Si 883  35.48150 -25.07840 -3.17100
Si 884  33.18950 -22.03500 0.67300
Si 886  31.51984 -20.75120 -1.11620
Si 887  30.69937 -21.14410 1.88355
Si 888  33.90190 -22.54170 3.46412
Si 891  35.23140 -24.98500 4.51068
Si 894  31.34728 -23.27530 5.23479
Si 897  31.92105 -19.85679 4.33654
Si 898  30.77997 -23.12460 8.25698
Si 899  37.85200 -25.38170 3.11416
Si 900  33.14700 -26.93260 3.31343
Si 901  34.69220 -29.69100 2.64839
Si 902  36.67820 -28.09450 3.40663
Si 903  37.29880 -30.23930 1.28190
Si 904  35.98150 -32.45210 2.71338
Si 907  34.18330 -33.53580 1.30810
Si 908  37.49700 -32.92960 5.47373
Si 909  36.50500 -32.36060 -0.48840
Si 910  34.13640 -34.79290 4.06188
Si 912  31.71589 -32.91420 4.68110
Si 913  31.46379 -31.72350 1.86796
Si 914  31.85143 -31.20460 -0.97600
Si 916  29.86652 -34.22786 1.61196
Si 917  28.63704 -29.81940 2.00972
Si 918  28.04298 -30.12370 -0.67860
Si 919  29.87390 -27.26420 2.02515
Si 920  26.09477 -30.30920 3.43431
Si 922  25.14166 -27.76570 2.17941
Si 923  24.40204 -32.68340 2.34327
Si 925  23.45550 -30.19980 1.63362
Si 926  21.51140 -30.31720 3.69042
Si 927  25.47431 -29.42210 -0.26580
Si 928  20.71370 -30.31880 0.66700
Si 930  18.51790 -29.08990 1.04990
Si 934  20.94070 -27.46540 0.84130
Si 935  20.11070 -32.60690 -1.27520
Si 938  20.78060 -26.25130 3.77818
Si 939  20.56950 -28.36700 5.94630
Si 940  18.78080 -24.02290 3.14006
Si 941  17.31900 -29.74590 3.19150
Si 942  16.95080 -27.71480 -0.82320
Si 943  17.65350 -24.95440 -1.53750
Si 944  18.23530 -32.12550 5.09337
Si 945  17.71440 -31.21850 8.13171
Si 946  15.05430 -30.49950 7.19413
Si 947  12.51270 -31.90520 7.93841
Si 948  23.92184 -28.16720 -2.46590
Si 949  26.44728 -29.42340 -3.27200
Si 951  24.11849 -32.01370 -1.49040
Si 952  23.51649 -34.49701 0.02790
Si 953  27.11005 -32.96020 -1.35260
Si 955  29.76502 -33.33040 -2.01160
Si 956  26.72711 -32.40950 -4.35830
Si 957  26.91513 -33.82790 1.68556
Si 958  29.11698 -35.62608 -1.12020
Si 960  31.26872 -37.53934 -1.51530
Si 963  26.78036 -37.02736 -2.62700
Si 964  30.53461 -34.63568 -4.10650
Si 965  29.46365 -31.78430 -4.62000
Si 968  33.65050 -35.06367 -4.12730
Si 971  35.65090 -35.25448 -1.91670
Si 972  34.02760 -33.62980 -6.76880
Si 973  31.41168 -31.92420 -6.91430
Si 974  37.90570 -36.96420 -2.84720
Si 975  36.77810 -39.74409 -1.70370
Si 976  36.88610 -38.80628 1.28290
Si 977  22.67860 -32.90410 4.90007
Si 978  24.19075 -33.02500 7.62951
Si 979  38.80180 -33.70470 0.69230
Si 980  38.15360 -27.04010 5.61455
Si 981  28.82969 -19.31282 -2.16340
Si 982  27.23369 -22.04100 -1.98930
Si 983  28.38593 -23.84630 0.29630
Si 984  41.48110 -20.31663 5.99899
Si 985  40.57100 -18.92016 8.19283
Si 986  43.65160 -22.58250 5.94575
Si 987  34.67960 -18.19084 6.41789
Si 989  25.03796 -17.11928 9.83589
Si 990  24.88554 -19.91231 8.19221
Si 991  21.72980 -8.90660 11.56200
Si 992  21.56450 -6.00890 13.14080
Si 993  23.06630 -6.94940 15.91940
Si 994  30.20849 -1.65780 12.17910
Si 996  26.70985 -1.24580 11.23980
Si 997  24.36869 3.33916 -4.47210
Si 999  25.93361 2.04169 -6.98950
Si 1000 25.36574 -0.63130 -6.22190
Si 1001 27.02003 2.55446 -9.65160
Si 1002 23.79523 -0.83210 -3.57350
Si 1003 22.27590 7.59731 4.53107
Si 1004 20.76710 10.85700 8.85149
Si 1005 14.33050 -1.81590 12.72960
Si 721  5.24389 6.51776 4.63012
Si 878  3.28013 8.12917 4.66088
Si 893  5.43399 5.17104 2.03980
Si 896  6.19760 4.41939 6.60843
Si 961  3.89826 7.47485 1.81143
Si 865  18.99100 9.17041 15.64120
Si 1007 16.13640 8.63456 16.79230
