42
Lattice="22.9629 0.0 0.0 0.0 22.9629 0.0 0.0 0.0 22.9629"
Si 869 20.547100000000004 17.284499999999998 9.95925
Si 886 18.236499999999996 17.7895 9.087770000000003
Si 927 17.961500000000004 13.815999999999999 11.825
Si 935 19.855499999999996 14.709300000000002 9.66206
Si 944 18.097200000000004 13.1784 14.410500000000003
Si 949 22.6482 16.0778 11.082399999999996
Si 976 19.4652 11.146599999999996 13.511500000000002
O 60 21.431699999999996 18.1608 8.8875
O 65 18.713600000000003 10.336400000000001 12.314899999999998
O 85 0.9221000000000004 17.176999999999996 11.013099999999998
O 105 18.608099999999997 11.441300000000002 14.904299999999996
O 105 18.608099999999997 11.441300000000002 14.904299999999996
O 107 17.652000000000005 19.6078 9.006710000000002
O 121 20.9635 11.640599999999996 13.750000000000004
O 154 18.538500000000003 13.849300000000003 8.85359
O 184 19.3948 14.492799999999999 11.270199999999999
O 184 19.3948 14.492799999999999 11.270199999999999
O 202 21.3856 17.625599999999995 11.429599999999997
O 202 21.3856 17.625599999999995 11.429599999999997
O 255 22.4064 15.510099999999998 12.591399999999997
O 260 21.398100000000003 15.839900000000004 10.053699999999996
O 260 21.398100000000003 15.839900000000004 10.053699999999996
O 260 21.398100000000003 15.839900000000004 10.053699999999996
O 289 16.7482 17.093099999999996 8.987640000000003
O 291 19.1728 13.9845 15.232800000000001
O 309 17.6716 12.502100000000002 10.852099999999997
O 333 17.2428 14.096900000000002 13.312299999999997
O 333 17.2428 14.096900000000002 13.312299999999997
O 418 20.9528 13.5472 9.264770000000002
O 482 16.9256 14.718099999999996 10.961400000000001
O 498 16.859200000000005 12.9967 15.392500000000002
O 530 0.5208000000000013 14.864300000000004 10.455000000000002
O 543 19.286999999999995 18.355099999999997 10.261399999999998
O 543 19.286999999999995 18.355099999999997 10.261399999999998
O 600 18.8903 17.87 7.634519999999998
O 617 18.8458 12.657900000000001 13.011500000000002
O 617 18.8458 12.657900000000001 13.011500000000002
O 617 18.8458 12.657900000000001 13.011500000000002
O 622 20.040700000000005 9.28518 14.0667
O 625 19.2749 16.285299999999996 9.410320000000002
O 625 19.2749 16.285299999999996 9.410320000000002
O 625 19.2749 16.285299999999996 9.410320000000002
