42
Lattice="22.9629 0.0 0.0 0.0 22.9629 0.0 0.0 0.0 22.9629"
Si 869 20.704600000000003 17.381900000000005 9.866220000000002
Si 886 18.3937 17.784700000000004 8.91273
Si 927 18.1835 13.7488 11.814800000000002
Si 935 19.939600000000002 14.743799999999997 9.588280000000001
Si 944 18.337 13.244899999999998 14.3612
Si 949 22.717900000000004 16.0562 10.850199999999997
Si 976 19.731799999999996 11.175799999999999 13.6373
O 60 21.4689 18.1872 8.667170000000002
O 65 18.818 10.342099999999999 12.403299999999998
O 85 0.978199999999994 17.093800000000005 10.782900000000001
O 105 18.7966 11.533400000000004 14.956199999999999
O 105 18.7966 11.533400000000004 14.956199999999999
O 107 17.8257 19.7182 8.75601
O 121 21.301400000000005 11.666299999999996 13.7664
O 154 18.624100000000002 13.7833 8.957609999999999
O 184 19.474700000000002 14.520500000000002 11.172500000000003
O 184 19.474700000000002 14.520500000000002 11.172500000000003
O 202 21.5538 17.7786 11.268699999999999
O 202 21.5538 17.7786 11.268699999999999
O 255 22.5906 15.5155 12.369800000000001
O 260 21.3477 15.844799999999996 9.979029999999998
O 260 21.3477 15.844799999999996 9.979029999999998
O 260 21.3477 15.844799999999996 9.979029999999998
O 289 16.933899999999998 17.106200000000005 8.946009999999998
O 291 19.3852 14.2073 15.108
O 309 17.894099999999998 12.409899999999997 10.940299999999997
O 333 17.446 14.029599999999999 13.2805
O 333 17.446 14.029599999999999 13.2805
O 418 20.9701 13.493600000000004 9.11534
O 482 17.007899999999996 14.656299999999998 11.011300000000002
O 498 17.110199999999995 13.0825 15.506199999999996
O 530 0.5750999999999991 14.812299999999997 10.110299999999999
O 543 19.2809 18.284700000000004 10.151999999999997
O 543 19.2809 18.284700000000004 10.151999999999997
O 600 18.910699999999995 17.8659 7.383890000000001
O 617 19.229500000000005 12.675 13.0215
O 617 19.229500000000005 12.675 13.0215
O 617 19.229500000000005 12.675 13.0215
O 622 20.2484 9.514799999999997 14.1099
O 625 19.358499999999996 16.2996 9.211940000000002
O 625 19.358499999999996 16.2996 9.211940000000002
O 625 19.358499999999996 16.2996 9.211940000000002
