36
Lattice="22.9629 0.0 0.0 0.0 22.9629 0.0 0.0 0.0 22.9629"
Si 714 18.880299999999995 21.2606 21.021199999999997
Si 831 0.056800000000002626 18.754499999999997 0.27779999999999916
Si 855 21.398100000000003 20.845500000000005 0.2173000000000016
Si 891 16.586000000000002 22.081599999999998 21.138899999999996
Si 892 20.6277 19.2989 21.3999
Si 938 15.408800000000003 1.4183899999999987 22.437
O 2 21.721300000000003 22.2077 22.202500000000004
O 48 19.583500000000004 20.0414 20.075099999999996
O 48 19.583500000000004 20.0414 20.075099999999996
O 62 14.546899999999997 1.5115300000000005 0.8470000000000013
O 67 19.3895 22.770500000000002 21.347399999999997
O 92 14.507300000000004 2.3438599999999994 21.4847
O 95 16.642 2.3457399999999993 0.022599999999997067
O 112 20.9124 21.423 1.6563899999999983
O 116 22.7109 17.254899999999996 22.531300000000005
O 167 1.535070000000001 18.926400000000005 22.5538
O 181 17.6835 21.647700000000004 19.902000000000005
O 181 17.6835 21.647700000000004 19.902000000000005
O 212 17.466200000000004 20.864 21.984600000000004
O 212 17.466200000000004 20.864 21.984600000000004
O 351 19.971700000000002 20.681299999999997 22.2242
O 351 19.971700000000002 20.681299999999997 22.2242
O 351 19.971700000000002 20.681299999999997 22.2242
O 439 21.316999999999997 19.1675 0.027200000000000557
O 439 21.316999999999997 19.1675 0.027200000000000557
O 439 21.316999999999997 19.1675 0.027200000000000557
O 455 20.349700000000002 17.7865 20.981200000000005
O 481 15.955099999999998 22.8362 22.581499999999995
O 481 15.955099999999998 22.8362 22.581499999999995
O 507 15.235600000000002 21.271800000000002 20.7752
O 542 22.036400000000004 19.768199999999997 20.809299999999997
O 544 0.10430000000000206 20.494900000000005 0.6043000000000021
O 544 0.10430000000000206 20.494900000000005 0.6043000000000021
O 570 0.10949999999999704 18.2345 1.8565199999999997
O 619 16.525700000000004 0.8164999999999978 20.616199999999996
O 619 16.525700000000004 0.8164999999999978 20.616199999999996
