48
Lattice="22.9629 0.0 0.0 0.0 22.9629 0.0 0.0 0.0 22.9629"
Si 681 17.704799999999995 5.2701899999999995 10.259400000000003
Si 696 22.058200000000003 1.6377999999999986 7.479400000000002
Si 754 21.726699999999997 4.655470000000001 7.3595299999999995
Si 788 15.195399999999996 6.2981300000000005 10.0962
Si 845 2.6591500000000003 2.3549499999999988 5.925999999999998
Si 868 0.9134999999999991 4.18121 6.5212900000000005
Si 936 19.188599999999997 4.761150000000001 7.7283100000000005
Si 998 4.8904700000000005 1.3087400000000002 5.276779999999999
O 4 6.2653500000000015 1.3706999999999994 6.216820000000002
O 50 20.751099999999997 3.8388500000000008 8.51294
O 50 20.751099999999997 3.8388500000000008 8.51294
O 102 20.5033 5.767720000000001 7.28697
O 102 20.5033 5.767720000000001 7.28697
O 192 21.718999999999998 1.4237800000000007 5.862849999999998
O 199 18.049899999999997 4.147189999999998 11.423199999999998
O 225 19.3837 3.7867700000000006 6.409549999999999
O 230 16.433899999999998 5.956599999999998 11.272499999999997
O 230 16.433899999999998 5.956599999999998 11.272499999999997
O 235 18.356399999999997 4.438079999999999 8.99785
O 235 18.356399999999997 4.438079999999999 8.99785
O 264 22.8614 5.39226 8.283449999999998
O 277 22.268400000000003 1.929739999999999 9.257349999999999
O 281 22.4123 5.067540000000001 5.845769999999998
O 281 22.4123 5.067540000000001 5.845769999999998
O 304 14.467600000000001 5.180609999999998 9.12667
O 311 14.048199999999998 6.069610000000001 11.366800000000001
O 346 1.9191700000000012 5.507100000000001 6.476379999999999
O 387 15.051100000000002 7.904170000000001 9.899750000000001
O 396 18.1435 5.857479999999999 7.081859999999999
O 398 3.659559999999999 2.2959899999999998 4.6598299999999995
O 398 3.659559999999999 2.2959899999999998 4.6598299999999995
O 412 22.5868 3.2289400000000015 7.187450000000002
O 412 22.5868 3.2289400000000015 7.187450000000002
O 412 22.5868 3.2289400000000015 7.187450000000002
O 463 0.0007000000000019213 0.2494999999999976 7.742259999999998
O 490 16.558200000000003 6.128820000000001 9.06148
O 490 16.558200000000003 6.128820000000001 9.06148
O 497 4.391249999999999 22.6489 5.34094
O 517 1.7220499999999994 0.9211999999999989 5.90709
O 529 18.9412 6.344739999999998 10.431500000000003
O 586 1.5312200000000011 3.4992599999999996 5.072320000000001
O 586 1.5312200000000011 3.4992599999999996 5.072320000000001
O 624 3.9910400000000017 1.7985800000000012 6.759899999999998
O 624 3.9910400000000017 1.7985800000000012 6.759899999999998
O 638 5.66339 1.0388599999999997 3.840959999999999
O 639 20.488000000000003 1.2165199999999992 7.89293
O 641 2.00835 3.0935699999999997 7.248630000000002
O 641 2.00835 3.0935699999999997 7.248630000000002
