36
Lattice="22.9629 0.0 0.0 0.0 22.9629 0.0 0.0 0.0 22.9629"
Si 714 18.8486 21.339299999999998 21.067600000000002
Si 831 0.15679999999999694 18.8186 0.17949999999999733
Si 855 21.470199999999995 20.8937 0.06519999999999726
Si 891 16.463200000000004 22.2619 21.133299999999995
Si 892 20.5677 19.3815 21.266300000000005
Si 938 15.406299999999998 1.510580000000001 22.3897
O 2 21.7484 22.300900000000002 22.204399999999996
O 48 19.561899999999998 20.1606 20.1315
O 48 19.561899999999998 20.1606 20.1315
O 62 14.447800000000004 1.7155500000000004 0.7641999999999953
O 67 19.362799999999996 22.8419 21.4348
O 92 14.5262 2.28022 21.3207
O 95 16.642600000000005 2.5447500000000005 22.790499999999998
O 112 20.906499999999998 21.541900000000002 1.4510700000000014
O 116 22.9057 17.3379 22.421399999999995
O 167 1.7448300000000003 18.8787 22.5581
O 181 17.599499999999995 21.851199999999995 19.983899999999995
O 181 17.599499999999995 21.851199999999995 19.983899999999995
O 212 17.4564 20.9845 21.995099999999997
O 212 17.4564 20.9845 21.995099999999997
O 351 19.9686 20.702699999999997 22.174899999999997
O 351 19.9686 20.702699999999997 22.174899999999997
O 351 19.9686 20.702699999999997 22.174899999999997
O 439 21.4766 19.209099999999996 22.7657
O 439 21.4766 19.209099999999996 22.7657
O 439 21.4766 19.209099999999996 22.7657
O 455 20.380299999999995 17.7796 20.868600000000004
O 481 15.973000000000003 22.9481 22.637800000000002
O 481 15.973000000000003 22.9481 22.637800000000002
O 507 15.115300000000001 21.519899999999996 20.647499999999997
O 542 21.965 19.900499999999997 20.518800000000002
O 544 0.20360000000000156 20.605 0.30049999999999955
O 544 0.20360000000000156 20.605 0.30049999999999955
O 570 0.0589999999999975 18.4216 1.753589999999999
O 619 16.470299999999998 0.9122999999999948 20.641099999999998
O 619 16.470299999999998 0.9122999999999948 20.641099999999998
