36
Lattice="22.9629 0.0 0.0 0.0 22.9629 0.0 0.0 0.0 22.9629"
Si 869 20.828599999999998 17.481200000000005 10.057800000000004
Si 886 18.5892 17.8612 8.83503
Si 927 18.2604 13.761300000000002 11.7961
Si 935 20.063599999999997 14.831500000000002 9.625379999999996
Si 944 18.350399999999997 13.156499999999998 14.3509
Si 976 19.770500000000002 11.2274 13.483
O 60 21.684500000000003 18.155199999999997 8.81634
O 65 18.896800000000002 10.403499999999998 12.290699999999998
O 105 18.7978 11.557599999999997 14.804100000000002
O 105 18.7978 11.557599999999997 14.804100000000002
O 107 18.015599999999996 19.7555 8.78246
O 121 21.395 11.697599999999998 13.564899999999998
O 154 18.8025 13.8595 8.762980000000002
O 184 19.538299999999996 14.613899999999997 11.198399999999996
O 184 19.538299999999996 14.613899999999997 11.198399999999996
O 202 21.531499999999998 17.8535 11.5851
O 260 21.562900000000003 16.003800000000002 10.0842
O 260 21.562900000000003 16.003800000000002 10.0842
O 289 17.102499999999996 17.1375 8.856539999999999
O 291 19.361099999999997 14.201600000000003 15.090599999999998
O 309 18.0448 12.511300000000002 10.830500000000004
O 333 17.485400000000002 14.038500000000003 13.262600000000003
O 333 17.485400000000002 14.038500000000003 13.262600000000003
O 418 21.070600000000002 13.610900000000004 9.330729999999999
O 482 17.135099999999998 14.701800000000002 10.8963
O 498 17.1598 13.145599999999998 15.5365
O 543 19.434699999999996 18.3749 10.116899999999998
O 543 19.434699999999996 18.3749 10.116899999999998
O 600 19.2338 17.971 7.36843
O 617 19.260700000000003 12.751899999999996 12.930200000000003
O 617 19.260700000000003 12.751899999999996 12.930200000000003
O 617 19.260700000000003 12.751899999999996 12.930200000000003
O 622 20.264600000000005 9.5397 14.032299999999996
O 625 19.490399999999998 16.370700000000003 9.157460000000004
O 625 19.490399999999998 16.370700000000003 9.157460000000004
O 625 19.490399999999998 16.370700000000003 9.157460000000004
