12
Lattice="22.9629 0.0 0.0 0.0 22.9629 0.0 0.0 0.0 22.9629"
Si 732 11.6384 15.1191 6.5822199999999995
Si 981 12.752599999999997 13.1236 8.03482
O 17 11.565900000000003 12.116299999999999 7.43571
O 147 12.803500000000003 13.1557 9.655550000000002
O 194 12.3719 15.077099999999998 5.056450000000002
O 301 11.907599999999999 16.661400000000004 6.979230000000001
O 430 10.126099999999997 14.987399999999997 5.99755
O 445 14.083200000000001 12.166700000000002 7.680600000000002
O 462 13.200999999999997 14.304399999999998 6.95008
O 462 13.200999999999997 14.304399999999998 6.95008
O 547 11.258799999999997 14.480599999999999 8.096540000000001
O 547 11.258799999999997 14.480599999999999 8.096540000000001
