6
Lattice="22.9629 0.0 0.0 0.0 22.9629 0.0 0.0 0.0 22.9629"
Si 820 11.575300000000002 1.3826600000000013 15.982200000000002
O 310 10.871799999999997 22.9494 16.8516
O 327 12.860699999999998 2.022639999999999 16.949500000000004
O 428 12.105700000000002 0.31759999999999877 14.825100000000003
O 634 12.022899999999996 2.66028 14.845600000000001
O 661 10.215 2.2127000000000017 16.4505
