12
Lattice="22.9629 0.0 0.0 0.0 22.9629 0.0 0.0 0.0 22.9629"
Si 732 11.578199999999999 15.105 6.490780000000001
Si 981 12.769400000000001 13.062299999999997 7.943920000000002
O 17 11.659400000000002 12.0365 7.39368
O 147 13.023300000000003 13.3507 9.53229
O 194 12.247600000000002 14.970400000000001 5.028380000000002
O 301 11.7458 16.656200000000002 6.882360000000002
O 430 10.044100000000004 14.806000000000001 5.953579999999999
O 445 14.1583 12.205000000000002 7.64443
O 462 13.2163 14.336200000000002 6.9159299999999995
O 462 13.2163 14.336200000000002 6.9159299999999995
O 547 11.294700000000002 14.414599999999997 8.033100000000001
O 547 11.294700000000002 14.414599999999997 8.033100000000001
