6
Lattice="22.9629 0.0 0.0 0.0 22.9629 0.0 0.0 0.0 22.9629"
Si 966 8.56202 12.2912 21.0892
O 54 7.767019999999999 13.650299999999998 21.687299999999997
O 146 10.151100000000003 11.611099999999997 21.022499999999997
O 148 8.529909999999997 11.743199999999998 22.7629
O 308 8.740869999999997 13.047900000000002 19.5326
O 329 7.67529 11.078500000000002 20.4143
