6
Lattice="22.9629 0.0 0.0 0.0 22.9629 0.0 0.0 0.0 22.9629"
Si 862 21.273 17.200599999999998 17.473699999999997
O 86 20.244199999999996 18.3385 18.2178
O 432 20.410100000000003 15.881699999999999 16.8651
O 496 21.2409 16.3571 19.124799999999997
O 559 21.4667 18.107699999999998 16.053
O 640 22.895500000000002 16.704399999999996 17.3839
