6
Lattice="22.9629 0.0 0.0 0.0 22.9629 0.0 0.0 0.0 22.9629"
Si 707 4.041709999999998 19.3454 9.220009999999998
O 93 3.14752 18.536400000000004 10.293099999999999
O 201 5.109269999999999 18.1377 8.869510000000002
O 204 2.3043699999999987 20.7702 9.17529
O 389 3.8968799999999995 19.9138 7.60896
O 548 5.01022 20.4738 9.84056
