12
Lattice="22.9629 0.0 0.0 0.0 22.9629 0.0 0.0 0.0 22.9629"
Si 721 16.3231 9.026610000000002 21.152999999999995
Si 824 18.9367 9.117660000000004 21.553
O 90 15.480700000000002 9.454930000000001 22.4963
O 224 19.074900000000003 9.619240000000001 0.15440000000000254
O 257 17.518400000000003 8.03295 21.9498
O 257 17.518400000000003 8.03295 21.9498
O 278 17.673400000000004 9.91922 20.743200000000005
O 278 17.673400000000004 9.91922 20.743200000000005
O 385 20.258100000000002 10.078300000000002 21.129899999999996
O 515 15.172 10.270500000000002 20.2617
O 613 15.916100000000004 7.894479999999998 20.038699999999995
O 623 19.477300000000003 7.991389999999999 20.511600000000005
