6
Lattice="22.9629 0.0 0.0 0.0 22.9629 0.0 0.0 0.0 22.9629"
Si 1006 21.0219 6.791070000000001 0.24969999999999715
O 151 20.527599999999996 5.9983499999999985 21.917199999999998
O 207 20.0144 7.806329999999999 0.9949999999999974
O 546 22.236300000000004 5.75027 0.8780000000000001
O 598 22.007700000000003 7.9589099999999995 22.615200000000005
O 656 19.870700000000003 5.301849999999998 1.5451000000000015
