42
Lattice="22.9629 0.0 0.0 0.0 22.9629 0.0 0.0 0.0 22.9629"
Si 869 20.609799999999996 17.370899999999995 9.961230000000004
Si 886 18.2998 17.9417 9.03499
Si 927 18.056900000000002 13.9481 11.982200000000002
Si 935 19.750199999999996 14.832899999999999 9.791059999999998
Si 944 18.1968 13.060999999999996 14.5256
Si 949 22.527599999999996 16.1452 11.117300000000004
Si 976 19.6664 11.2107 13.541100000000004
O 60 21.623300000000004 18.008100000000002 8.85086
O 65 18.8102 10.395 12.410100000000003
O 85 0.9151999999999987 17.134199999999996 11.053
O 105 18.721700000000002 11.421899999999997 14.947300000000002
O 105 18.721700000000002 11.421899999999997 14.947300000000002
O 107 17.702500000000004 19.788699999999995 8.87502
O 121 21.2452 11.513200000000001 13.604099999999999
O 154 18.4316 13.970499999999998 9.109219999999997
O 184 19.3687 14.623999999999999 11.371500000000001
O 184 19.3687 14.623999999999999 11.371500000000001
O 202 21.3349 17.6091 11.471700000000002
O 202 21.3349 17.6091 11.471700000000002
O 255 22.342900000000004 15.500899999999998 12.595499999999998
O 260 21.264299999999995 15.840999999999998 10.0427
O 260 21.264299999999995 15.840999999999998 10.0427
O 260 21.264299999999995 15.840999999999998 10.0427
O 289 16.777999999999995 17.230099999999997 9.021139999999999
O 291 19.2901 13.9834 15.302200000000003
O 309 17.7841 12.622499999999999 11.014500000000002
O 333 17.4543 14.001899999999996 13.471500000000002
O 333 17.4543 14.001899999999996 13.471500000000002
O 418 20.7328 13.570699999999999 9.327670000000001
O 482 16.9168 14.8948 11.203599999999998
O 498 17.0007 13.014700000000001 15.5759
O 530 0.3937999999999988 14.8854 10.372800000000002
O 543 19.4042 18.436200000000003 10.123900000000003
O 543 19.4042 18.436200000000003 10.123900000000003
O 600 18.944 17.9862 7.52543
O 617 19.1343 12.6643 13.103199999999998
O 617 19.1343 12.6643 13.103199999999998
O 617 19.1343 12.6643 13.103199999999998
O 622 20.191400000000005 9.297 14.196000000000002
O 625 19.173199999999998 16.375199999999996 9.409290000000002
O 625 19.173199999999998 16.375199999999996 9.409290000000002
O 625 19.173199999999998 16.375199999999996 9.409290000000002
