12
Lattice="22.9629 0.0 0.0 0.0 22.9629 0.0 0.0 0.0 22.9629"
Si 828 7.7970700000000015 12.547 18.4708
Si 966 8.641490000000001 12.205299999999998 21.191800000000004
O 54 8.01793 13.6848 21.7655
O 146 10.105599999999999 11.2912 21.008799999999997
O 148 8.476699999999997 11.6506 22.8237
O 308 8.93376 13.080400000000001 19.592900000000004
O 308 8.93376 13.080400000000001 19.592900000000004
O 329 7.62865 11.284200000000002 20.3391
O 329 7.62865 11.284200000000002 20.3391
O 345 6.201060000000002 12.391700000000004 18.5363
O 467 7.93328 13.635499999999997 17.226199999999995
O 477 8.46837 11.1662 17.877799999999997
