12
Lattice="23.7651 0.0 0.0 0.0 23.7651 0.0 0.0 0.0 23.7651"
Si 927 23.613000000000003 16.4102 7.88354
Si 944 23.7385 16.0444 10.333099999999998
O 105 0.7993300000000012 14.310599999999997 11.281499999999998
O 184 1.4882099999999987 16.467900000000004 7.377140000000001
O 291 1.4121300000000012 16.6296 10.593399999999999
O 309 22.9609 15.349999999999998 6.778169999999999
O 333 23.058700000000005 17.1277 9.338829999999998
O 333 23.058700000000005 17.1277 9.338829999999998
O 482 23.071100000000005 17.733 6.96414
O 498 22.5067 15.7268 11.385700000000003
O 617 0.2605000000000004 15.044799999999999 9.040160000000004
O 617 0.2605000000000004 15.044799999999999 9.040160000000004
