12
Lattice="23.7651 0.0 0.0 0.0 23.7651 0.0 0.0 0.0 23.7651"
Si 927 23.669100000000004 16.4183 7.873760000000001
Si 944 0.05619999999999692 15.878899999999998 10.4147
O 105 0.8103699999999989 14.327200000000001 11.1277
O 184 1.5587899999999983 16.573399999999996 7.429459999999999
O 291 1.418800000000001 16.732900000000004 10.742999999999999
O 309 22.8822 15.287400000000002 6.947469999999999
O 333 22.9494 16.9021 9.373480000000004
O 333 22.9494 16.9021 9.373480000000004
O 482 23.0924 17.7422 7.1042999999999985
O 498 22.6236 15.648599999999998 11.493100000000002
O 617 0.3485999999999976 15.044900000000002 9.01418
O 617 0.3485999999999976 15.044900000000002 9.01418
