6
Lattice="21.9108 0.0 0.0 0.0 21.9108 0.0 0.0 0.0 21.9108"
Si 721 7.5092099999999995 6.48836 3.505839999999999
O 90 6.150670000000002 6.932120000000001 4.426880000000001
O 257 8.4195 5.812090000000001 4.7671600000000005
O 278 8.659679999999998 7.565999999999999 3.3203999999999994
O 515 6.431930000000001 7.606550000000002 2.2760800000000003
O 613 7.29964 5.2297699999999985 2.544319999999999
