18
Lattice="21.9108 0.0 0.0 0.0 21.9108 0.0 0.0 0.0 21.9108"
Si 688 7.338519999999999 12.4226 9.898619999999998
Si 723 4.876950000000001 11.918800000000001 9.16988
Si 872 9.864650000000001 11.820699999999999 11.630599999999998
O 101 8.405060000000002 11.660999999999998 10.840100000000003
O 101 8.405060000000002 11.660999999999998 10.840100000000003
O 154 10.825799999999997 11.205400000000001 12.921299999999999
O 188 6.034459999999999 13.042300000000001 8.65313
O 188 6.034459999999999 13.042300000000001 8.65313
O 194 3.6643599999999985 12.478999999999996 10.0764
O 198 8.07114 11.6878 8.51623
O 340 10.4802 10.568099999999998 10.585800000000003
O 454 5.42033 10.382900000000003 9.273770000000003
O 462 5.943850000000001 12.142700000000001 10.819399999999998
O 462 5.943850000000001 12.142700000000001 10.819399999999998
O 494 7.664480000000001 13.971500000000002 10.121399999999998
O 524 8.874010000000002 12.662000000000003 12.896399999999996
O 537 10.725800000000003 13.097599999999996 11.054399999999998
O 563 4.217189999999999 11.755800000000004 7.622710000000001
