150
Lattice="21.9108 0.0 0.0 0.0 21.9108 0.0 0.0 0.0 21.9108"
Si 679 14.486799999999999 10.156200000000002 14.084
Si 681 9.7254 4.39235 14.270399999999999
Si 706 9.47314 8.247339999999998 19.5906
Si 715 18.308199999999996 13.2182 14.050999999999998
Si 781 4.132249999999999 13.5825 0.32270000000000465
Si 783 11.464700000000004 6.94087 10.995500000000003
Si 793 15.235699999999998 12.642099999999996 13.580200000000001
Si 814 16.7968 14.219599999999996 12.187700000000003
Si 832 7.387080000000001 7.644860000000001 14.538099999999996
Si 835 7.57826 10.945000000000004 19.373500000000003
Si 842 9.27581 6.881519999999998 15.9237
Si 852 20.9877 14.783600000000003 0.17130000000000223
Si 869 13.258100000000002 14.575199999999999 14.474700000000002
Si 897 8.62596 13.466400000000004 20.190700000000003
Si 920 12.738899999999997 7.94426 12.837799999999998
Si 926 6.045059999999999 14.306900000000002 20.460800000000003
Si 940 5.030799999999999 11.078799999999998 1.1295000000000002
Si 944 10.098499999999998 10.714899999999997 18.861299999999996
Si 955 8.733360000000001 4.489660000000001 16.9532
Si 956 8.8 5.159310000000001 11.195800000000002
Si 963 1.1947000000000045 13.544799999999999 21.365400000000005
Si 968 12.670799999999996 5.68243 14.095499999999998
Si 976 11.041599999999999 9.259719999999998 16.755400000000005
Si 996 17.319799999999997 17.0699 11.356999999999996
Si 1004 19.8603 16.784500000000005 11.9757
O 12 8.030559999999998 3.8719399999999986 10.669799999999999
O 26 3.7253800000000012 11.937900000000003 0.39560000000000173
O 26 3.7253800000000012 11.937900000000003 0.39560000000000173
O 30 12.804799999999997 7.892230000000001 11.1523
O 30 12.804799999999997 7.892230000000001 11.1523
O 32 5.663869999999999 12.689699999999998 1.200099999999999
O 32 5.663869999999999 12.689699999999998 1.200099999999999
O 35 6.59178 10.606300000000001 1.6250399999999985
O 39 4.2331900000000005 10.5551 2.479119999999998
O 42 20.296699999999998 16.186599999999995 21.464300000000005
O 60 13.820600000000002 15.868999999999996 13.597199999999997
O 63 14.760200000000001 11.370299999999997 12.690899999999996
O 63 14.760200000000001 11.370299999999997 12.690899999999996
O 65 10.511300000000002 7.657619999999998 16.518600000000003
O 65 10.511300000000002 7.657619999999998 16.518600000000003
O 68 7.489840000000001 3.955090000000002 17.993
O 71 5.954550000000001 8.359280000000002 14.704699999999999
O 77 4.98621 13.031499999999998 20.1641
O 100 7.040879999999998 13.802299999999999 19.0568
O 100 7.040879999999998 13.802299999999999 19.0568
O 105 10.495100000000004 9.020199999999999 18.4284
O 105 10.495100000000004 9.020199999999999 18.4284
O 105 10.495100000000004 9.020199999999999 18.4284
O 121 12.628200000000003 9.321819999999999 16.959299999999995
O 129 7.411280000000001 11.1964 21.048
O 133 8.901399999999999 12.072399999999998 19.237599999999997
O 133 8.901399999999999 12.072399999999998 19.237599999999997
O 133 8.901399999999999 12.072399999999998 19.237599999999997
O 134 10.6726 7.992280000000001 10.063199999999998
O 135 5.95776 11.066399999999998 19.097800000000003
O 139 9.197669999999999 7.1861999999999995 14.311199999999996
O 139 9.197669999999999 7.1861999999999995 14.311199999999996
O 140 8.087720000000001 8.124950000000002 15.904500000000002
O 140 8.087720000000001 8.124950000000002 15.904500000000002
O 145 5.04271 9.94568 21.7963
O 150 10.3019 8.57031 21.1373
O 158 3.46669 14.054799999999997 1.7959099999999992
O 164 15.746199999999998 11.394900000000003 14.7058
O 164 15.746199999999998 11.394900000000003 14.7058
O 168 12.511599999999998 7.27806 14.377999999999997
O 168 12.511599999999998 7.27806 14.377999999999997
O 175 12.816399999999998 5.08924 15.618800000000004
O 176 20.993999999999996 15.215299999999996 1.8481400000000008
O 187 7.827829999999999 6.404499999999999 11.1223
O 199 9.9897 2.7949699999999993 14.368300000000001
O 201 18.397000000000002 17.224500000000003 12.760000000000002
O 201 18.397000000000002 17.224500000000003 12.760000000000002
O 202 13.401 14.815000000000001 16.1803
O 203 14.284600000000001 5.488810000000001 13.691199999999998
O 214 16.8152 12.929300000000001 13.3083
O 214 16.8152 12.929300000000001 13.3083
O 214 16.8152 12.929300000000001 13.3083
O 220 1.2364000000000033 12.7039 19.860700000000005
O 230 8.093779999999999 3.869389999999999 15.501299999999997
O 230 8.093779999999999 3.869389999999999 15.501299999999997
O 233 16.5399 18.4462 11.3321
O 235 11.2396 4.792349999999999 13.6557
O 235 11.2396 4.792349999999999 13.6557
O 238 20.102100000000004 13.180299999999999 14.188599999999997
O 246 17.521799999999995 16.0769 10.096299999999996
O 254 17.0046 13.710000000000004 10.654500000000002
O 260 14.746300000000002 13.6833 14.764599999999998
O 260 14.746300000000002 13.6833 14.764599999999998
O 273 7.3644 8.01379 12.892300000000002
O 284 5.197839999999999 14.848400000000002 21.8518
O 284 5.197839999999999 14.848400000000002 21.8518
O 291 11.374800000000004 11.372600000000002 19.460199999999997
O 299 0.6263000000000005 15.162400000000002 21.443099999999998
O 299 0.6263000000000005 15.162400000000002 21.443099999999998
O 307 20.9237 18.0093 11.944500000000001
O 309 10.814699999999998 9.66714 15.098600000000001
O 313 20.0966 15.6707 10.834500000000002
O 333 7.6598299999999995 10.543299999999999 17.639999999999997
O 335 12.279300000000003 6.25966 12.418900000000004
O 335 12.279300000000003 6.25966 12.418900000000004
O 335 12.279300000000003 6.25966 12.418900000000004
O 337 7.96519 7.847809999999999 18.939199999999996
O 343 15.0262 13.797700000000003 12.314000000000004
O 343 15.0262 13.797700000000003 12.314000000000004
O 370 11.9511 5.70515 10.064
O 386 19.454999999999995 14.171800000000001 0.6118000000000023
O 387 7.04299 6.069420000000001 14.6664
O 389 18.8895 17.866399999999995 10.630399999999998
O 389 18.8895 17.866399999999995 10.630399999999998
O 396 10.285599999999999 5.86824 11.586899999999996
O 396 10.285599999999999 5.86824 11.586899999999996
O 418 13.197500000000002 11.079800000000002 14.541799999999999
O 423 9.479589999999998 5.255800000000001 9.345189999999999
O 449 18.326199999999996 11.726099999999999 14.924400000000002
O 469 10.0653 6.721540000000001 19.368
O 490 8.77354 4.7354400000000005 13.022299999999998
O 490 8.77354 4.7354400000000005 13.022299999999998
O 491 8.282810000000001 6.084710000000001 17.1315
O 491 8.282810000000001 6.084710000000001 17.1315
O 493 16.456299999999995 15.8569 12.169599999999999
O 493 16.456299999999995 15.8569 12.169599999999999
O 498 8.897580000000001 9.89772 19.745900000000002
O 498 8.897580000000001 9.89772 19.745900000000002
O 498 8.897580000000001 9.89772 19.745900000000002
O 499 18.4166 14.293499999999998 12.713400000000004
O 499 18.4166 14.293499999999998 12.713400000000004
O 505 21.3567 13.357299999999999 21.4147
O 505 21.3567 13.357299999999999 21.4147
O 529 9.81644 5.300909999999998 15.660500000000003
O 529 9.81644 5.300909999999998 15.660500000000003
O 529 9.81644 5.300909999999998 15.660500000000003
O 539 13.8768 9.05613 13.072700000000001
O 539 13.8768 9.05613 13.072700000000001
O 543 11.6643 15.052699999999998 14.744899999999998
O 545 5.51895 15.5671 19.630300000000002
O 549 9.775270000000003 3.5726699999999987 17.7045
O 553 9.399719999999999 14.632200000000001 19.313600000000005
O 557 20.2852 15.812000000000001 13.335899999999999
O 585 9.658849999999997 13.055199999999996 21.4162
O 587 14.746100000000002 9.170069999999999 15.358299999999996
O 596 2.8154199999999996 13.942499999999999 21.325600000000005
O 596 2.8154199999999996 13.942499999999999 21.325600000000005
O 601 1.1328999999999994 13.201899999999998 1.1015000000000015
O 617 10.460000000000004 10.8201 17.2062
O 617 10.460000000000004 10.8201 17.2062
O 625 12.751900000000003 13.380599999999998 13.418800000000001
O 627 17.811900000000005 14.321000000000002 15.151399999999999
O 648 7.474619999999998 14.086200000000002 21.176399999999997
O 648 7.474619999999998 14.086200000000002 21.176399999999997
O 650 11.244200000000003 8.597460000000002 12.707199999999997
