426
Lattice="21.9108 0.0 0.0 0.0 21.9108 0.0 0.0 0.0 21.9108"
Si 674 4.406690000000001 4.871929999999999 11.774200000000004
Si 679 14.292399999999997 10.159600000000001 14.114799999999999
Si 681 9.55276 4.416630000000001 14.511399999999998
Si 686 18.142499999999995 18.6915 2.3623699999999985
Si 692 8.68883 15.904500000000002 4.7082799999999985
Si 696 13.784400000000002 21.5483 11.6602
Si 703 12.990800000000004 13.667399999999997 5.115739999999999
Si 706 9.26109 8.27691 19.7726
Si 714 9.61776 18.209299999999995 3.37697
Si 715 18.252099999999995 13.226899999999997 14.229499999999998
Si 720 14.401900000000001 2.09234 9.005689999999998
Si 731 1.2597000000000023 10.805899999999998 14.498900000000003
Si 736 15.108999999999998 14.359800000000003 1.6800700000000006
Si 737 7.120070000000002 7.122440000000001 17.812499999999996
Si 749 21.4019 4.592389999999998 17.234000000000005
Si 750 0.6921000000000035 7.359829999999999 18.677199999999996
Si 753 21.2503 19.8847 1.9044600000000003
Si 765 17.0145 15.962100000000003 2.5259800000000006
Si 774 0.2860999999999976 4.98002 14.097400000000004
Si 776 13.300300000000004 20.331600000000005 8.843419999999998
Si 778 21.3023 7.256209999999999 4.607900000000001
Si 781 3.753450000000001 13.683899999999998 0.7490000000000023
Si 783 11.4783 7.000109999999999 11.087500000000002
Si 793 15.157300000000003 12.584300000000002 13.6262
Si 794 9.14152 2.498059999999999 18.776999999999997
Si 796 1.2380000000000067 8.92605 5.364799999999999
Si 797 21.103999999999996 7.459240000000001 1.5247000000000028
Si 799 21.121400000000005 0.8770000000000024 2.4323300000000003
Si 801 14.942000000000004 21.626900000000003 6.814589999999999
Si 814 16.729499999999998 14.2792 12.288799999999998
Si 817 21.7193 1.6625499999999995 4.77214
Si 819 19.1172 19.9582 0.31349999999999767
Si 825 14.813799999999997 1.1332000000000022 4.588760000000001
Si 828 21.7263 9.831149999999997 0.49029999999999774
Si 831 13.6814 16.2659 6.236709999999999
Si 832 7.40823 7.623079999999998 14.607099999999999
Si 835 7.310190000000002 10.949000000000002 19.425099999999997
Si 841 1.3918000000000035 10.761700000000001 8.02967
Si 842 9.2533 6.89386 16.0654
Si 843 16.6384 0.9491000000000014 8.632720000000003
Si 847 9.18645 20.7034 2.3526300000000013
Si 852 20.7109 14.916499999999996 0.02669999999999817
Si 855 11.770099999999996 18.1536 5.8095
Si 869 13.134200000000003 14.6007 14.576599999999996
Si 879 8.447849999999999 0.3678999999999988 12.287400000000002
Si 881 1.4225000000000065 7.675039999999999 21.240199999999998
Si 894 2.9073700000000002 5.344329999999999 14.9072
Si 897 8.290290000000002 13.594800000000003 20.1538
Si 910 4.221140000000002 17.9624 2.75845
Si 920 12.560600000000004 7.974599999999999 12.971799999999998
Si 926 5.742340000000002 14.311000000000003 20.5926
Si 930 15.669700000000002 15.690300000000004 4.787589999999998
Si 936 11.2518 4.773160000000001 12.209399999999999
Si 940 4.774609999999999 11.232400000000002 1.308799999999998
Si 941 20.902799999999996 2.857199999999999 6.900479999999998
Si 944 9.75628 10.756200000000003 18.9562
Si 950 0.4025000000000034 6.827180000000002 16.1245
Si 953 10.4393 1.848939999999999 11.085599999999996
Si 955 8.667739999999998 4.450379999999999 16.9312
Si 963 0.9431999999999974 13.604499999999998 21.460599999999996
Si 968 12.5061 5.8243800000000014 14.243999999999996
Si 971 20.985899999999997 4.758009999999999 5.102969999999999
Si 976 10.761599999999998 9.27414 17.0078
Si 983 14.7839 18.874099999999995 6.6031200000000005
Si 986 2.88073 20.2144 2.3370399999999982
Si 989 2.1700799999999987 9.209889999999998 16.3436
Si 992 11.742100000000004 0.3710000000000022 12.888699999999996
Si 996 17.3888 17.1609 11.452899999999996
Si 1003 2.5045600000000015 3.427620000000001 13.066199999999998
Si 1004 19.769000000000002 16.793400000000002 12.224500000000003
Si 1007 21.1803 9.052890000000001 14.498000000000001
O 1 3.6381000000000014 20.8918 1.0416000000000025
O 2 12.467499999999998 19.174199999999995 4.75761
O 6 10.081599999999998 0.5847000000000051 12.216400000000004
O 6 10.081599999999998 0.5847000000000051 12.216400000000004
O 6 10.081599999999998 0.5847000000000051 12.216400000000004
O 8 3.9289400000000008 17.056499999999996 4.132480000000001
O 13 21.476899999999997 8.514399999999998 18.708899999999996
O 14 4.205639999999999 6.471360000000001 15.030600000000003
O 19 16.963199999999997 16.618099999999995 4.17323
O 19 16.963199999999997 16.618099999999995 4.17323
O 26 3.3781999999999996 12.056099999999997 0.5305999999999997
O 26 3.3781999999999996 12.056099999999997 0.5305999999999997
O 27 0.8988000000000014 0.5641000000000034 5.297689999999999
O 28 21.664600000000004 5.326080000000001 15.6033
O 28 21.664600000000004 5.326080000000001 15.6033
O 28 21.664600000000004 5.326080000000001 15.6033
O 29 19.534900000000004 0.8171000000000035 1.6202499999999986
O 30 12.844599999999996 7.887240000000002 11.2137
O 30 12.844599999999996 7.887240000000002 11.2137
O 32 5.187950000000001 12.896200000000004 1.5005000000000024
O 32 5.187950000000001 12.896200000000004 1.5005000000000024
O 35 6.36741 10.733900000000002 1.7085000000000008
O 39 4.017859999999999 10.917399999999997 2.7159200000000006
O 42 19.963199999999997 16.2497 21.2888
O 47 0.05940000000000367 18.519699999999997 2.24531
O 48 9.8281 15.7351 3.4588900000000002
O 49 10.788099999999996 1.3849000000000018 9.496579999999998
O 50 11.965 1.6623799999999989 11.870999999999999
O 50 11.965 1.6623799999999989 11.870999999999999
O 60 13.667100000000001 16.017800000000005 13.854899999999997
O 63 14.597400000000004 11.358500000000003 12.823899999999998
O 63 14.597400000000004 11.358500000000003 12.823899999999998
O 65 10.415200000000002 7.662749999999999 16.8227
O 65 10.415200000000002 7.662749999999999 16.8227
O 67 10.3914 19.8068 3.360579999999999
O 67 10.3914 19.8068 3.360579999999999
O 68 7.536730000000002 3.7505999999999986 17.971799999999998
O 68 7.536730000000002 3.7505999999999986 17.971799999999998
O 71 5.980900000000002 8.4104 14.686600000000002
O 76 4.3325700000000005 19.676200000000005 2.88514
O 76 4.3325700000000005 19.676200000000005 2.88514
O 77 4.73696 13.086400000000001 20.1266
O 79 2.474589999999999 21.327899999999996 3.3938799999999993
O 84 3.1591200000000015 5.5741499999999995 11.052699999999998
O 87 11.017799999999998 0.42150000000000176 14.3582
O 89 0.11780000000000257 6.1067399999999985 17.6846
O 89 0.11780000000000257 6.1067399999999985 17.6846
O 89 0.11780000000000257 6.1067399999999985 17.6846
O 97 0.3240000000000052 7.643409999999999 6.142039999999998
O 97 0.3240000000000052 7.643409999999999 6.142039999999998
O 100 6.85361 13.908799999999996 19.146399999999996
O 100 6.85361 13.908799999999996 19.146399999999996
O 102 12.620000000000001 4.04523 12.0288
O 105 10.278299999999998 9.15824 18.7135
O 105 10.278299999999998 9.15824 18.7135
O 105 10.278299999999998 9.15824 18.7135
O 106 2.0745700000000014 10.099 13.3109
O 111 19.513299999999997 9.38515 14.795100000000001
O 112 10.9819 19.174000000000003 6.83793
O 116 13.9967 15.1054 5.00637
O 116 13.9967 15.1054 5.00637
O 116 13.9967 15.1054 5.00637
O 121 12.376000000000001 9.445350000000001 17.1814
O 122 1.7021200000000007 6.374939999999999 15.215399999999999
O 122 1.7021200000000007 6.374939999999999 15.215399999999999
O 122 1.7021200000000007 6.374939999999999 15.215399999999999
O 125 11.8884 13.880700000000001 6.36581
O 126 14.243100000000002 12.863899999999997 5.885480000000001
O 128 10.0151 15.285900000000002 5.64536
O 129 7.086670000000002 11.279099999999996 21.144900000000003
O 133 8.531220000000001 12.1782 19.301200000000005
O 133 8.531220000000001 12.1782 19.301200000000005
O 133 8.531220000000001 12.1782 19.301200000000005
O 134 10.5962 8.07716 10.214000000000002
O 135 5.691770000000002 11.006600000000002 19.196700000000003
O 136 16.478400000000004 14.532099999999996 5.582910000000002
O 139 9.101200000000002 7.313010000000002 14.5196
O 139 9.101200000000002 7.313010000000002 14.5196
O 140 7.887550000000001 7.898250000000001 16.364299999999997
O 140 7.887550000000001 7.898250000000001 16.364299999999997
O 140 7.887550000000001 7.898250000000001 16.364299999999997
O 143 8.42063 0.07679999999999865 3.0425000000000004
O 144 3.470469999999999 4.776799999999998 13.407999999999998
O 144 3.470469999999999 4.776799999999998 13.407999999999998
O 144 3.470469999999999 4.776799999999998 13.407999999999998
O 145 4.7529900000000005 10.120500000000003 0.03720000000000567
O 148 21.785300000000003 8.82181 4.415400000000002
O 148 21.785300000000003 8.82181 4.415400000000002
O 150 9.97872 8.479969999999998 21.2606
O 153 19.7942 4.109680000000001 17.1769
O 158 3.1661800000000007 14.262399999999996 2.1485899999999987
O 161 0.5154000000000067 3.3363900000000015 16.9513
O 163 19.698400000000003 2.67474 8.0292
O 164 15.552899999999998 11.368100000000002 14.843999999999998
O 164 15.552899999999998 11.368100000000002 14.843999999999998
O 166 9.08755 3.101490000000002 20.2876
O 167 15.111999999999998 16.893600000000003 5.79795
O 167 15.111999999999998 16.893600000000003 5.79795
O 167 15.111999999999998 16.893600000000003 5.79795
O 168 12.356400000000004 7.41376 14.558400000000002
O 168 12.356400000000004 7.41376 14.558400000000002
O 170 7.845580000000002 16.52 6.151720000000001
O 172 8.006730000000001 1.3423000000000016 18.615599999999997
O 174 15.057600000000004 0.8986999999999981 7.9117
O 174 15.057600000000004 0.8986999999999981 7.9117
O 174 15.057600000000004 0.8986999999999981 7.9117
O 175 12.7071 5.115649999999999 15.709700000000002
O 176 20.887200000000004 15.327000000000002 1.6275499999999994
O 181 10.026399999999999 17.7685 1.8788400000000003
O 185 20.837500000000002 1.3193000000000055 6.329159999999998
O 185 20.837500000000002 1.3193000000000055 6.329159999999998
O 192 13.776900000000001 21.4515 10.0306
O 192 13.776900000000001 21.4515 10.0306
O 199 9.90849 2.8031299999999995 14.427299999999999
O 201 18.3456 17.2351 12.984599999999997
O 201 18.3456 17.2351 12.984599999999997
O 202 13.3203 14.821200000000001 16.360899999999997
O 203 14.036600000000004 5.510369999999998 13.758399999999998
O 210 1.3231000000000037 12.4363 14.348200000000002
O 212 8.23922 17.3633 3.8504199999999997
O 212 8.23922 17.3633 3.8504199999999997
O 214 16.797099999999997 12.875200000000003 13.395500000000002
O 214 16.797099999999997 12.875200000000003 13.395500000000002
O 214 16.797099999999997 12.875200000000003 13.395500000000002
O 218 21.041999999999998 7.7462599999999995 15.674000000000003
O 218 21.041999999999998 7.7462599999999995 15.674000000000003
O 220 1.152700000000003 12.613899999999997 20.103400000000004
O 223 18.7523 21.5087 21.6101
O 225 10.357099999999999 3.489329999999999 11.451000000000004
O 225 10.357099999999999 3.489329999999999 11.451000000000004
O 229 12.688300000000002 12.254699999999996 4.213059999999999
O 230 8.07245 3.9576700000000002 15.409200000000002
O 230 8.07245 3.9576700000000002 15.409200000000002
O 233 16.494399999999995 18.452700000000004 11.305199999999996
O 235 11.104499999999998 4.811589999999999 13.8323
O 235 11.104499999999998 4.811589999999999 13.8323
O 235 11.104499999999998 4.811589999999999 13.8323
O 237 3.2489099999999986 8.786269999999998 15.168000000000003
O 238 19.984599999999997 13.2469 14.304300000000001
O 242 20.968100000000003 4.07855 13.625899999999998
O 246 17.4958 16.2154 10.065000000000001
O 249 21.278900000000004 4.292169999999999 18.907300000000003
O 250 0.1425000000000054 6.537659999999999 20.1769
O 250 0.1425000000000054 6.537659999999999 20.1769
O 253 20.365599999999997 4.387260000000001 6.553039999999999
O 253 20.365599999999997 4.387260000000001 6.553039999999999
O 254 16.9731 13.8933 10.689000000000004
O 260 14.587 13.6309 14.807500000000001
O 260 14.587 13.6309 14.807500000000001
O 273 7.247150000000001 7.843299999999999 12.860400000000002
O 274 8.56917 20.509799999999995 0.7816000000000045
O 275 17.054200000000005 2.213000000000001 7.557829999999999
O 276 2.667069999999999 10.033100000000001 8.860009999999999
O 277 13.192600000000002 21.5898 13.488899999999997
O 277 13.192600000000002 21.5898 13.488899999999997
O 281 13.855 2.6758500000000005 10.433699999999998
O 282 1.3549999999999969 3.879529999999999 11.9524
O 284 4.875 14.851400000000002 0.10549999999999926
O 284 4.875 14.851400000000002 0.10549999999999926
O 285 7.698350000000001 14.710400000000003 4.451560000000001
O 291 11.131600000000002 11.426300000000001 19.431700000000003
O 293 20.6418 7.051280000000002 3.125890000000002
O 293 20.6418 7.051280000000002 3.125890000000002
O 299 0.2984999999999971 15.272400000000001 21.2131
O 299 0.2984999999999971 15.272400000000001 21.2131
O 307 20.9659 17.7822 12.1277
O 308 1.0770000000000053 10.3265 1.5300999999999974
O 309 10.5318 9.60642 15.315099999999997
O 312 2.367000000000001 7.89292 4.885120000000001
O 313 19.983299999999996 15.685799999999997 11.0654
O 314 4.14114 16.9933 1.4114999999999966
O 321 19.651 19.433900000000005 1.8494300000000017
O 321 19.651 19.433900000000005 1.8494300000000017
O 321 19.651 19.433900000000005 1.8494300000000017
O 322 17.417799999999996 17.2888 1.7722599999999993
O 322 17.417799999999996 17.2888 1.7722599999999993
O 323 2.394770000000001 1.8312600000000003 13.0979
O 329 21.0686 9.0669 1.991389999999999
O 329 21.0686 9.0669 1.991389999999999
O 333 7.546150000000001 10.591599999999996 17.7734
O 335 12.059999999999999 6.3755500000000005 12.561199999999996
O 335 12.059999999999999 6.3755500000000005 12.561199999999996
O 335 12.059999999999999 6.3755500000000005 12.561199999999996
O 335 12.059999999999999 6.3755500000000005 12.561199999999996
O 337 7.8214700000000015 7.866520000000001 19.071499999999997
O 337 7.8214700000000015 7.866520000000001 19.071499999999997
O 343 15.006600000000002 13.9162 12.430800000000001
O 343 15.006600000000002 13.9162 12.430800000000001
O 345 20.4053 10.9128 0.4820000000000064
O 349 1.5311000000000021 3.965299999999999 14.348499999999998
O 349 1.5311000000000021 3.965299999999999 14.348499999999998
O 349 1.5311000000000021 3.965299999999999 14.348499999999998
O 350 15.061400000000003 19.3257 5.03565
O 351 10.392500000000002 17.775900000000004 4.81542
O 351 10.392500000000002 17.775900000000004 4.81542
O 353 17.0517 19.262200000000004 3.4237399999999987
O 354 3.370540000000002 9.14573 17.558000000000003
O 364 17.694799999999997 19.543900000000004 0.9118000000000066
O 364 17.694799999999997 19.543900000000004 0.9118000000000066
O 369 15.638200000000001 2.4014099999999985 5.32076
O 370 11.878200000000003 5.74363 10.026799999999998
O 373 15.715500000000002 15.105 3.137150000000002
O 373 15.715500000000002 15.105 3.137150000000002
O 373 15.715500000000002 15.105 3.137150000000002
O 374 21.7957 5.990819999999999 1.2759
O 377 15.351400000000002 0.3410000000000011 3.3429800000000007
O 386 19.1728 14.268200000000004 0.6203000000000003
O 387 6.96772 6.092079999999999 14.769000000000002
O 389 18.841400000000004 18.0159 10.8706
O 389 18.841400000000004 18.0159 10.8706
O 390 14.955700000000004 3.619340000000001 8.458920000000003
O 392 1.7952000000000012 10.0383 4.091840000000001
O 393 20.0369 6.654540000000001 5.504249999999999
O 393 20.0369 6.654540000000001 5.504249999999999
O 396 10.1872 5.921789999999998 11.573600000000003
O 396 10.1872 5.921789999999998 11.573600000000003
O 397 19.9779 4.351009999999999 3.9314399999999985
O 398 18.1108 0.8466000000000022 9.549330000000001
O 409 2.4659499999999994 18.5329 2.562760000000001
O 409 2.4659499999999994 18.5329 2.562760000000001
O 410 2.51183 8.819230000000001 21.693
O 412 14.349299999999996 1.1559000000000026 12.032300000000003
O 415 13.898 0.4643000000000015 5.715399999999999
O 415 13.898 0.4643000000000015 5.715399999999999
O 418 12.886 10.879500000000004 14.472199999999997
O 426 2.2751599999999996 6.4114499999999985 21.827899999999996
O 427 20.416099999999997 1.4614000000000047 3.826930000000001
O 427 20.416099999999997 1.4614000000000047 3.826930000000001
O 430 1.2421000000000006 12.122800000000002 9.21152
O 435 8.75843 1.5038000000000054 10.545600000000004
O 435 8.75843 1.5038000000000054 10.545600000000004
O 436 0.322499999999998 2.8939500000000002 7.731680000000001
O 438 21.615800000000004 0.7790000000000035 0.8363000000000014
O 439 12.170799999999996 16.558400000000002 5.62191
O 439 12.170799999999996 16.558400000000002 5.62191
O 440 19.485700000000005 19.0528 20.9218
O 441 21.7951 3.1776599999999995 5.193619999999999
O 441 21.7951 3.1776599999999995 5.193619999999999
O 441 21.7951 3.1776599999999995 5.193619999999999
O 442 19.005400000000005 17.8969 3.612490000000001
O 449 18.2523 11.668900000000004 14.951599999999996
O 451 1.051000000000002 12.052600000000002 6.982469999999999
O 452 14.2771 19.1106 9.38175
O 453 11.940499999999997 19.6377 9.60325
O 455 11.9239 14.401300000000003 3.9523800000000016
O 463 14.927899999999998 20.4224 12.009699999999999
O 464 14.299699999999998 20.3118 7.37482
O 464 14.299699999999998 20.3118 7.37482
O 464 14.299699999999998 20.3118 7.37482
O 467 0.30740000000000123 10.2839 20.922499999999996
O 469 9.883849999999999 6.71171 19.535499999999995
O 470 12.991400000000002 2.000209999999999 8.25178
O 471 16.252400000000005 18.8561 7.1682500000000005
O 475 8.349 21.4374 13.6007
O 476 13.942600000000002 15.5975 1.5300000000000011
O 477 0.09200000000000585 8.24861 0.1314000000000064
O 477 0.09200000000000585 8.24861 0.1314000000000064
O 477 0.09200000000000585 8.24861 0.1314000000000064
O 478 7.793499999999998 1.7624600000000008 12.5881
O 479 1.305100000000003 7.903359999999999 17.0468
O 479 1.305100000000003 7.903359999999999 17.0468
O 479 1.305100000000003 7.903359999999999 17.0468
O 490 8.75198 4.7726299999999995 13.093799999999998
O 491 8.26202 5.972110000000001 17.267499999999995
O 491 8.26202 5.972110000000001 17.267499999999995
O 491 8.26202 5.972110000000001 17.267499999999995
O 493 16.5359 15.947599999999998 12.218399999999999
O 493 16.5359 15.947599999999998 12.218399999999999
O 498 8.605149999999998 9.94567 19.891299999999998
O 498 8.605149999999998 9.94567 19.891299999999998
O 498 8.605149999999998 9.94567 19.891299999999998
O 499 18.318499999999997 14.362100000000002 12.931999999999999
O 499 18.318499999999997 14.362100000000002 12.931999999999999
O 502 6.312650000000001 5.830860000000001 18.5647
O 503 3.8648999999999987 3.1180100000000017 11.852900000000002
O 503 3.8648999999999987 3.1180100000000017 11.852900000000002
O 505 21.160300000000003 13.383 21.484199999999998
O 505 21.160300000000003 13.383 21.484199999999998
O 507 5.872810000000001 17.930900000000005 2.7932500000000005
O 508 16.009799999999995 21.733100000000004 5.552609999999998
O 508 16.009799999999995 21.733100000000004 5.552609999999998
O 514 2.0985900000000015 10.851499999999998 16.0277
O 514 2.0985900000000015 10.851499999999998 16.0277
O 520 1.2813000000000017 20.614100000000004 1.071000000000005
O 520 1.2813000000000017 20.614100000000004 1.071000000000005
O 526 21.4509 10.734400000000004 14.2375
O 526 21.4509 10.734400000000004 14.2375
O 528 21.332800000000002 21.253899999999998 2.87331
O 528 21.332800000000002 21.253899999999998 2.87331
O 529 9.80941 5.355309999999999 15.829000000000004
O 529 9.80941 5.355309999999999 15.829000000000004
O 529 9.80941 5.355309999999999 15.829000000000004
O 539 13.779900000000001 8.949769999999997 13.120500000000003
O 539 13.779900000000001 8.949769999999997 13.120500000000003
O 543 11.627199999999998 15.191399999999998 14.881699999999999
O 544 13.363200000000003 18.039600000000004 6.81222
O 544 13.363200000000003 18.039600000000004 6.81222
O 544 13.363200000000003 18.039600000000004 6.81222
O 545 5.2727900000000005 15.616299999999999 19.669899999999995
O 549 9.76632 3.56616 17.643600000000003
O 549 9.76632 3.56616 17.643600000000003
O 553 9.19041 14.747800000000002 19.4053
O 556 10.445600000000002 1.4242000000000061 18.946899999999996
O 557 20.365599999999997 15.9025 13.4226
O 562 1.8923999999999985 7.85181 19.637200000000004
O 562 1.8923999999999985 7.85181 19.637200000000004
O 564 12.216400000000004 21.2043 7.91432
O 570 13.973499999999998 15.346999999999998 7.493259999999999
O 575 3.1908700000000003 4.556290000000001 16.2565
O 577 13.675300000000004 2.0406200000000005 3.6819200000000016
O 579 18.417399999999997 15.181700000000003 2.7306500000000007
O 585 9.295019999999997 13.2272 21.4299
O 586 15.755100000000002 1.480700000000006 9.895869999999999
O 586 15.755100000000002 1.480700000000006 9.895869999999999
O 587 14.5547 9.29521 15.500800000000002
O 588 16.623100000000004 15.026 1.067700000000002
O 588 16.623100000000004 15.026 1.067700000000002
O 590 0.23100000000000165 5.76127 4.686420000000002
O 590 0.23100000000000165 5.76127 4.686420000000002
O 592 0.7618000000000009 9.20993 15.213400000000004
O 592 0.7618000000000009 9.20993 15.213400000000004
O 592 0.7618000000000009 9.20993 15.213400000000004
O 596 2.4778699999999994 14.174800000000001 21.5688
O 596 2.4778699999999994 14.174800000000001 21.5688
O 601 0.942300000000003 13.259399999999996 1.232599999999998
O 603 0.11240000000000094 9.85231 8.496649999999999
O 606 5.56664 5.8069099999999985 12.337300000000003
O 607 7.234169999999999 21.4939 11.471999999999998
O 611 5.669920000000001 7.96658 17.454400000000003
O 612 10.481400000000004 21.415500000000005 1.7665499999999987
O 614 16.921000000000003 21.3672 7.949680000000001
O 614 16.921000000000003 21.3672 7.949680000000001
O 616 19.6071 7.38963 0.8562000000000012
O 617 10.012 10.856800000000003 17.2891
O 617 10.012 10.856800000000003 17.2891
O 619 8.244330000000001 19.3969 2.997820000000001
O 619 8.244330000000001 19.3969 2.997820000000001
O 625 12.608500000000003 13.333099999999998 13.6495
O 627 17.903900000000004 14.221500000000002 15.380399999999998
O 631 0.7030999999999992 6.18844 13.056900000000002
O 637 1.7599400000000003 9.83513 6.641539999999999
O 637 1.7599400000000003 9.83513 6.641539999999999
O 639 12.089499999999997 21.1504 11.618100000000002
O 639 12.089499999999997 21.1504 11.618100000000002
O 640 14.432600000000004 13.806700000000003 0.24430000000000263
O 644 15.308199999999996 12.823000000000004 2.2684099999999994
O 648 7.12688 14.1281 21.329199999999997
O 648 7.12688 14.1281 21.329199999999997
O 650 11.066100000000002 8.673680000000001 12.8306
O 653 21.4031 8.357760000000003 13.039399999999997
O 654 0.6075999999999979 1.641490000000001 3.1468500000000006
O 654 0.6075999999999979 1.641490000000001 3.1468500000000006
O 655 5.1759699999999995 4.48058 10.356599999999997
O 668 20.8222 20.654800000000005 0.4264999999999972
O 668 20.8222 20.654800000000005 0.4264999999999972
