6
Lattice="21.9108 0.0 0.0 0.0 21.9108 0.0 0.0 0.0 21.9108"
Si 827 2.852550000000001 15.316500000000001 7.389610000000001
O 24 2.7631499999999996 16.261300000000002 8.919230000000002
O 55 1.7174300000000002 14.340799999999998 8.07901
O 96 2.9665099999999995 16.808599999999995 6.767779999999998
O 532 2.4577899999999993 14.888200000000001 5.769479999999998
O 645 4.270410000000002 14.607200000000002 7.805630000000001
