126
Lattice="21.9108 0.0 0.0 0.0 21.9108 0.0 0.0 0.0 21.9108"
Si 686 18.270499999999995 18.564199999999996 2.2202699999999993
Si 696 13.6399 21.530600000000003 11.586499999999997
Si 703 13.030899999999999 13.715799999999998 4.9992100000000015
Si 714 9.698240000000002 17.9109 3.339369999999999
Si 736 15.027399999999997 14.304399999999998 1.6323399999999992
Si 744 11.3595 20.654300000000003 3.815100000000001
Si 753 21.3633 19.7189 1.7873699999999992
Si 765 17.0384 15.857699999999998 2.4175000000000004
Si 776 13.131200000000003 20.4352 8.852329999999998
Si 799 20.9609 0.7063000000000059 2.525389999999998
Si 817 21.630300000000002 1.4600000000000009 4.766479999999998
Si 819 19.2685 20.0052 0.17200000000000415
Si 831 13.559499999999996 16.331 6.1301999999999985
Si 847 9.00789 20.648 2.448719999999998
Si 855 11.702499999999997 18.142300000000002 5.754249999999999
Si 879 8.353939999999998 0.438600000000001 12.3479
Si 930 15.588800000000003 15.707199999999997 4.680350000000001
Si 941 20.844400000000004 2.7772900000000007 6.824560000000002
Si 953 10.393800000000002 1.931799999999999 11.082599999999996
Si 983 14.702099999999998 18.945400000000003 6.522739999999999
Si 992 11.630399999999998 0.36000000000000654 12.933400000000002
O 2 12.160500000000003 19.2645 4.515060000000002
O 2 12.160500000000003 19.2645 4.515060000000002
O 6 10.0197 0.7063000000000059 12.358
O 6 10.0197 0.7063000000000059 12.358
O 6 10.0197 0.7063000000000059 12.358
O 19 17.0373 16.5166 4.091640000000002
O 19 17.0373 16.5166 4.091640000000002
O 27 0.940100000000001 0.5642000000000067 5.30885
O 29 19.4639 0.7881 1.705919999999999
O 47 0.025500000000000966 18.547099999999997 2.7045600000000007
O 48 9.78255 16.042600000000004 3.3725400000000008
O 49 10.638200000000001 1.6731599999999993 9.48482
O 50 11.9333 1.6612299999999998 11.895399999999999
O 50 11.9333 1.6612299999999998 11.895399999999999
O 59 10.804100000000002 21.1985 5.328289999999999
O 67 9.98003 19.613899999999997 3.384730000000001
O 67 9.98003 19.613899999999997 3.384730000000001
O 67 9.98003 19.613899999999997 3.384730000000001
O 87 11.222599999999996 0.4339000000000013 14.5149
O 112 10.9783 19.210000000000004 6.87659
O 116 13.9616 15.087799999999998 4.8787400000000005
O 116 13.9616 15.087799999999998 4.8787400000000005
O 116 13.9616 15.087799999999998 4.8787400000000005
O 125 11.9879 13.962900000000001 6.296530000000001
O 126 14.1311 12.8308 5.82798
O 136 16.4511 14.617999999999999 5.544900000000002
O 143 8.29495 0.0035999999999987153 3.154790000000002
O 163 19.791999999999998 2.6129 8.08088
O 167 15.102700000000002 16.8856 5.728860000000001
O 167 15.102700000000002 16.8856 5.728860000000001
O 167 15.102700000000002 16.8856 5.728860000000001
O 181 9.906499999999998 17.779 1.7033999999999985
O 185 20.7991 1.1482000000000028 6.324809999999999
O 185 20.7991 1.1482000000000028 6.324809999999999
O 192 13.566199999999998 21.6187 9.93516
O 192 13.566199999999998 21.6187 9.93516
O 212 8.223600000000001 17.539399999999997 3.8880799999999986
O 223 18.7811 21.615800000000004 21.531900000000004
O 225 10.231999999999996 3.5340099999999985 11.425300000000004
O 229 12.589499999999997 12.3749 4.10239
O 253 20.3633 4.356649999999998 6.50244
O 274 8.898219999999998 20.5374 0.8249000000000066
O 277 13.162699999999997 21.5061 13.396800000000002
O 277 13.162699999999997 21.5061 13.396800000000002
O 297 12.764799999999997 21.3068 3.385200000000001
O 321 19.859599999999997 18.978599999999997 1.453400000000002
O 321 19.859599999999997 18.978599999999997 1.453400000000002
O 321 19.859599999999997 18.978599999999997 1.453400000000002
O 322 17.4815 17.1852 1.5647200000000012
O 322 17.4815 17.1852 1.5647200000000012
O 350 14.9327 19.3852 4.937560000000001
O 351 10.3766 17.6525 4.849029999999999
O 351 10.3766 17.6525 4.849029999999999
O 353 16.9245 18.950799999999997 3.192899999999998
O 364 17.862400000000004 19.7702 1.0142000000000024
O 364 17.862400000000004 19.7702 1.0142000000000024
O 373 15.5795 15.1615 3.1001200000000004
O 373 15.5795 15.1615 3.1001200000000004
O 373 15.5795 15.1615 3.1001200000000004
O 412 14.339899999999997 1.0694000000000017 12.0185
O 427 20.275000000000002 1.1386000000000038 3.958739999999999
O 427 20.275000000000002 1.1386000000000038 3.958739999999999
O 435 8.66768 1.3903000000000034 10.6613
O 435 8.66768 1.3903000000000034 10.6613
O 436 0.26769999999999783 2.764330000000001 7.73113
O 438 21.560600000000004 0.8304000000000045 0.9457999999999984
O 439 12.075199999999999 16.477100000000004 5.581900000000001
O 439 12.075199999999999 16.477100000000004 5.581900000000001
O 440 19.464300000000005 19.1097 20.8252
O 441 21.629299999999997 3.039159999999999 5.218869999999999
O 441 21.629299999999997 3.039159999999999 5.218869999999999
O 442 19.06 17.949300000000004 3.6228799999999985
O 452 14.140399999999996 19.2105 9.437830000000002
O 453 11.828700000000001 19.6912 9.603759999999998
O 455 11.767999999999997 14.470200000000002 3.8985999999999983
O 463 14.832199999999997 20.5089 11.874100000000002
O 464 14.236500000000003 20.3539 7.254390000000001
O 464 14.236500000000003 20.3539 7.254390000000001
O 471 16.159000000000002 18.7535 7.18233
O 475 8.339690000000001 21.471500000000002 13.708499999999997
O 476 13.866899999999998 15.6159 1.4322000000000017
O 478 7.499379999999999 1.854890000000001 12.5185
O 520 1.0452000000000012 20.3308 1.0844000000000023
O 528 21.150699999999997 20.9742 2.819939999999999
O 528 21.150699999999997 20.9742 2.819939999999999
O 544 13.256899999999998 18.0534 6.59158
O 544 13.256899999999998 18.0534 6.59158
O 544 13.256899999999998 18.0534 6.59158
O 564 12.127800000000004 21.232399999999995 7.754670000000001
O 570 13.839299999999998 15.443700000000003 7.4118400000000015
O 579 18.392499999999995 14.988499999999998 2.6861700000000006
O 588 16.5635 14.857099999999999 1.014400000000002
O 588 16.5635 14.857099999999999 1.014400000000002
O 607 7.3352900000000005 21.383400000000005 11.501999999999999
O 612 10.648 21.5095 2.374320000000001
O 612 10.648 21.5095 2.374320000000001
O 619 7.67164 19.628799999999995 2.8270000000000017
O 639 11.865199999999998 21.192800000000002 11.656299999999998
O 639 11.865199999999998 21.192800000000002 11.656299999999998
O 640 14.4376 13.864299999999997 0.1781000000000006
O 644 15.391299999999998 12.885099999999998 2.2641099999999987
O 654 0.41499999999999915 1.5924699999999987 3.158719999999999
O 654 0.41499999999999915 1.5924699999999987 3.158719999999999
O 668 20.8105 20.6412 0.33610000000000184
O 668 20.8105 20.6412 0.33610000000000184
