6
Lattice="21.9108 0.0 0.0 0.0 21.9108 0.0 0.0 0.0 21.9108"
Si 809 12.3708 18.676799999999997 15.293499999999998
O 178 13.627999999999997 18.4909 14.035
O 244 12.723099999999999 17.180199999999996 15.852
O 252 13.013000000000002 20.142999999999997 15.538099999999996
O 554 11.1208 18.6236 16.434499999999996
O 567 11.043600000000001 18.9849 14.253499999999999
