6
Lattice="21.9108 0.0 0.0 0.0 21.9108 0.0 0.0 0.0 21.9108"
Si 827 2.823710000000002 15.405600000000003 7.34535
O 24 2.793569999999999 16.378799999999995 8.895770000000002
O 55 1.823360000000001 14.397400000000001 8.08529
O 96 2.9725600000000014 16.9549 6.741980000000002
O 532 2.3179100000000012 14.9849 5.795310000000001
O 645 4.207460000000001 14.7533 7.684750000000001
