12
Lattice="21.9108 0.0 0.0 0.0 21.9108 0.0 0.0 0.0 21.9108"
Si 721 7.23499 6.57921 3.5608199999999997
Si 824 9.72908 6.758279999999999 4.13345
O 90 5.947040000000001 6.878689999999999 4.43524
O 224 9.94744 7.62285 5.613489999999999
O 257 8.344570000000001 5.8294 4.802099999999999
O 257 8.344570000000001 5.8294 4.802099999999999
O 278 8.517489999999999 7.572040000000001 3.3440499999999993
O 278 8.517489999999999 7.572040000000001 3.3440499999999993
O 385 11.281200000000002 7.118510000000001 3.7428600000000003
O 515 6.342549999999999 7.576650000000001 2.283470000000001
O 613 7.125589999999999 5.164210000000001 2.704530000000002
O 623 9.858909999999998 5.43432 2.9050499999999992
