6
Lattice="21.9108 0.0 0.0 0.0 21.9108 0.0 0.0 0.0 21.9108"
Si 805 1.9424300000000017 3.298870000000001 20.362400000000004
O 294 0.6593000000000018 2.271090000000001 20.090299999999996
O 339 2.9494599999999984 2.327300000000001 19.428300000000004
O 359 2.1377699999999997 4.563130000000001 19.2576
O 555 0.8827000000000069 4.353059999999999 21.264300000000002
O 571 2.9473899999999986 3.1543799999999997 21.638100000000005
