6
Lattice="21.9108 0.0 0.0 0.0 21.9108 0.0 0.0 0.0 21.9108"
Si 887 0.5114000000000019 0.4172000000000011 9.709689999999998
O 4 20.990800000000004 1.0920000000000059 9.97624
O 36 1.1225000000000023 1.1184000000000012 11.088899999999999
O 157 2.016770000000001 1.2068999999999974 8.86225
O 383 1.0269000000000048 20.798600000000004 10.330299999999998
O 448 0.09609999999999985 21.687 8.193189999999998
