6
Lattice="21.9108 0.0 0.0 0.0 21.9108 0.0 0.0 0.0 21.9108"
Si 809 12.268399999999996 18.8019 15.312700000000003
O 178 13.557500000000001 18.5784 14.082599999999996
O 244 12.624500000000001 17.333899999999996 15.9434
O 252 12.818300000000004 20.307600000000004 15.590100000000003
O 554 10.948400000000003 18.755999999999997 16.4256
O 567 11.004999999999999 19.0598 14.280799999999996
