6
Lattice="21.9108 0.0 0.0 0.0 21.9108 0.0 0.0 0.0 21.9108"
Si 809 12.1799 18.703 15.272900000000003
O 178 13.5915 18.4151 14.046699999999998
O 244 12.651399999999999 17.274200000000004 15.8781
O 252 12.785 20.190300000000004 15.628699999999998
O 554 10.9055 18.648800000000005 16.394900000000003
O 567 11.020900000000001 19.036600000000004 14.204899999999999
