6
Lattice="21.9108 0.0 0.0 0.0 21.9108 0.0 0.0 0.0 21.9108"
Si 809 12.300900000000002 18.808199999999996 15.379500000000004
O 178 13.624999999999996 18.4398 14.043000000000003
O 244 12.7379 17.4213 16.068099999999998
O 252 12.867 20.288099999999996 15.645
O 554 10.999599999999997 18.829999999999995 16.493099999999995
O 567 11.0613 19.0892 14.267500000000002
