30
Lattice="21.9108 0.0 0.0 0.0 21.9108 0.0 0.0 0.0 21.9108"
Si 698 14.904700000000002 0.9804999999999993 17.138900000000003
Si 752 13.605799999999999 0.01020000000000465 21.506799999999995
Si 870 13.662699999999997 20.685799999999997 18.7683
Si 901 13.555199999999996 2.4194899999999997 15.574899999999996
Si 965 15.611900000000002 19.7174 20.4498
O 34 16.4626 0.8800000000000026 16.5232
O 43 14.952099999999998 3.3286499999999997 15.383999999999997
O 57 12.620000000000001 0.11220000000000141 18.771799999999995
O 78 14.9592 18.948000000000004 21.689199999999996
O 83 12.9967 20.637200000000004 0.4992999999999981
O 162 14.136 0.7505999999999986 15.566500000000001
O 162 14.136 0.7505999999999986 15.566500000000001
O 205 16.8773 18.674000000000003 20.153699999999997
O 251 11.938399999999998 2.152149999999999 15.996199999999998
O 265 14.227599999999999 1.2503000000000029 20.5344
O 266 15.0018 19.3182 18.9393
O 266 15.0018 19.3182 18.9393
O 271 11.955000000000002 0.5409000000000006 21.2884
O 330 12.576400000000003 19.638100000000005 18.367500000000003
O 381 13.241699999999998 2.353760000000001 13.8903
O 424 14.634200000000003 21.3987 17.688100000000002
O 424 14.634200000000003 21.3987 17.688100000000002
O 487 14.557199999999998 0.3247 0.9194000000000031
O 504 15.755700000000001 1.4703000000000017 18.551
O 527 13.976099999999999 2.32404 17.2052
O 527 13.976099999999999 2.32404 17.2052
O 536 16.4504 21.0825 20.7424
O 569 14.070000000000004 20.780399999999997 20.3618
O 569 14.070000000000004 20.780399999999997 20.3618
O 569 14.070000000000004 20.780399999999997 20.3618
