144
Lattice="21.9108 0.0 0.0 0.0 21.9108 0.0 0.0 0.0 21.9108"
Si 686 18.320800000000002 18.740800000000004 2.2893399999999993
Si 692 8.774649999999998 16.094400000000004 4.8135200000000005
Si 696 13.898099999999996 21.495500000000003 11.592299999999998
Si 703 13.198699999999999 13.7242 4.977170000000001
Si 714 9.613899999999997 18.3201 3.2835099999999997
Si 736 15.134800000000002 14.3854 1.5831400000000002
Si 753 21.326000000000004 19.7799 1.9582900000000016
Si 765 17.098499999999998 16.0241 2.4415499999999994
Si 776 13.401399999999999 20.388299999999997 8.845839999999999
Si 799 21.2514 0.8367000000000004 2.3267799999999994
Si 817 21.8946 1.5034000000000063 4.6997
Si 819 19.371199999999998 20.025500000000005 0.232999999999997
Si 831 13.784299999999998 16.3796 6.08578
Si 847 9.25394 20.700600000000005 2.137620000000002
Si 855 11.845600000000001 18.1457 5.709859999999999
Si 879 8.57479 0.34210000000000207 12.270099999999996
Si 910 4.423359999999999 17.9147 2.6559799999999996
Si 930 15.7253 15.746399999999998 4.65044
Si 941 21.1424 2.8362300000000005 6.774049999999999
Si 953 10.6174 1.9261000000000017 10.989100000000004
Si 970 20.3254 0.7376000000000005 21.727699999999995
Si 983 14.956500000000002 18.7336 6.41178
Si 986 2.9420199999999994 20.163499999999996 2.218869999999999
Si 992 11.807500000000001 0.35770000000000124 12.8351
O 1 3.6634199999999986 20.9181 0.942300000000003
O 2 12.456900000000001 19.219999999999995 4.664460000000002
O 6 10.245999999999999 0.668600000000005 12.248500000000003
O 6 10.245999999999999 0.668600000000005 12.248500000000003
O 6 10.245999999999999 0.668600000000005 12.248500000000003
O 8 4.159230000000001 17.1666 4.064170000000001
O 19 17.0027 16.6748 4.031880000000001
O 19 17.0027 16.6748 4.031880000000001
O 27 1.1646 0.5872000000000028 5.07151
O 29 19.717899999999997 0.9507000000000048 1.5005999999999986
O 29 19.717899999999997 0.9507000000000048 1.5005999999999986
O 47 0.10849999999999937 18.406900000000004 2.4359
O 48 9.805229999999998 15.6923 3.495750000000001
O 49 10.931900000000002 1.6175400000000018 9.408660000000001
O 50 12.1598 1.6959499999999998 11.832899999999999
O 50 12.1598 1.6959499999999998 11.832899999999999
O 67 10.432799999999997 19.880099999999995 3.168099999999999
O 67 10.432799999999997 19.880099999999995 3.168099999999999
O 76 4.549240000000001 19.585999999999995 2.5649599999999992
O 76 4.549240000000001 19.585999999999995 2.5649599999999992
O 79 2.7207800000000013 21.2807 3.3698200000000007
O 87 11.264799999999997 0.31330000000000524 14.383300000000002
O 112 11.114100000000004 19.118099999999995 6.782129999999999
O 116 14.136100000000003 15.2439 4.8458000000000006
O 116 14.136100000000003 15.2439 4.8458000000000006
O 116 14.136100000000003 15.2439 4.8458000000000006
O 125 12.159499999999998 13.9541 6.2801100000000005
O 126 14.412900000000004 12.983100000000004 5.656829999999999
O 128 10.154099999999996 15.2758 5.606370000000002
O 136 16.601700000000005 14.688199999999998 5.495380000000001
O 143 8.44454 0.0397000000000034 2.7891399999999997
O 163 20.088199999999997 2.6133099999999985 7.998090000000001
O 167 15.271200000000004 17.0275 5.719059999999999
O 167 15.271200000000004 17.0275 5.719059999999999
O 167 15.271200000000004 17.0275 5.719059999999999
O 170 8.23435 16.8297 6.260159999999999
O 181 9.985969999999998 17.8139 1.7805199999999992
O 185 20.952 1.2287000000000035 6.182980000000001
O 185 20.952 1.2287000000000035 6.182980000000001
O 192 13.773900000000001 21.6433 9.93282
O 192 13.773900000000001 21.6433 9.93282
O 212 8.301280000000002 17.366399999999995 3.8945000000000007
O 212 8.301280000000002 17.366399999999995 3.8945000000000007
O 223 19.0166 21.6435 21.49
O 223 19.0166 21.6435 21.49
O 225 10.5748 3.5091399999999986 11.2488
O 229 12.848499999999998 12.359100000000002 3.9957700000000003
O 253 20.4791 4.309519999999999 6.420460000000002
O 274 8.71723 20.2773 0.639800000000001
O 277 13.3278 21.610399999999995 13.425799999999999
O 277 13.3278 21.610399999999995 13.425799999999999
O 285 7.688939999999999 14.917199999999998 4.7805
O 314 4.431149999999999 17.020599999999998 1.2682000000000002
O 321 19.7732 19.385299999999997 1.8250899999999994
O 321 19.7732 19.385299999999997 1.8250899999999994
O 321 19.7732 19.385299999999997 1.8250899999999994
O 322 17.428899999999995 17.414600000000004 1.638770000000001
O 322 17.428899999999995 17.414600000000004 1.638770000000001
O 350 15.124999999999996 19.3753 4.868010000000002
O 351 10.509800000000002 17.837100000000003 4.6233
O 351 10.509800000000002 17.837100000000003 4.6233
O 353 17.241600000000002 19.2167 3.37219
O 364 17.9271 19.774600000000003 0.9289000000000058
O 364 17.9271 19.774600000000003 0.9289000000000058
O 373 15.779399999999999 15.111299999999996 3.05659
O 373 15.779399999999999 15.111299999999996 3.05659
O 373 15.779399999999999 15.111299999999996 3.05659
O 409 2.678519999999999 18.542200000000005 2.5308899999999994
O 409 2.678519999999999 18.542200000000005 2.5308899999999994
O 412 14.514799999999997 1.0332000000000008 11.9102
O 427 20.524399999999996 1.3189000000000064 3.703330000000001
O 427 20.524399999999996 1.3189000000000064 3.703330000000001
O 435 8.906209999999998 1.4692000000000007 10.550999999999998
O 435 8.906209999999998 1.4692000000000007 10.550999999999998
O 436 0.5838000000000036 2.80968 7.5083400000000005
O 438 21.807399999999998 0.7060999999999993 0.7834000000000003
O 438 21.807399999999998 0.7060999999999993 0.7834000000000003
O 439 12.2116 16.474699999999995 5.54336
O 439 12.2116 16.474699999999995 5.54336
O 440 19.657300000000003 19.204599999999996 20.832800000000002
O 441 21.887799999999995 3.0715000000000003 5.135290000000001
O 441 21.887799999999995 3.0715000000000003 5.135290000000001
O 442 19.179799999999997 17.757100000000005 3.443570000000001
O 452 14.284699999999997 19.211700000000004 9.574740000000002
O 453 12.052600000000002 19.670600000000004 9.581109999999999
O 455 12.025299999999998 14.398099999999996 3.8510300000000015
O 463 15.086700000000004 20.461300000000005 11.860800000000001
O 464 14.482899999999997 20.219400000000004 7.254580000000001
O 464 14.482899999999997 20.219400000000004 7.254580000000001
O 471 16.4166 18.685799999999997 7.089970000000001
O 475 8.477810000000002 21.4164 13.558199999999996
O 476 14.059000000000001 15.648900000000001 1.4864999999999995
O 478 7.767019999999999 1.7443300000000015 12.487999999999996
O 484 19.7946 2.266770000000001 21.345899999999997
O 507 6.081659999999999 17.710800000000003 2.7399999999999984
O 520 1.4470000000000027 20.2752 1.2252999999999972
O 520 1.4470000000000027 20.2752 1.2252999999999972
O 528 21.356800000000003 21.136300000000002 2.8074800000000018
O 528 21.356800000000003 21.136300000000002 2.8074800000000018
O 544 13.494899999999998 17.967300000000005 6.64639
O 544 13.494899999999998 17.967300000000005 6.64639
O 544 13.494899999999998 17.967300000000005 6.64639
O 564 12.477599999999999 21.0761 7.699189999999998
O 570 14.1039 15.454000000000004 7.3827
O 579 18.460800000000003 15.247400000000003 2.67004
O 588 16.6675 15.023 0.9675999999999974
O 588 16.6675 15.023 0.9675999999999974
O 607 7.592580000000002 21.391900000000003 11.292199999999998
O 612 10.5339 21.4704 1.444499999999998
O 619 8.278409999999997 19.435600000000004 2.961120000000001
O 619 8.278409999999997 19.435600000000004 2.961120000000001
O 639 12.248000000000001 21.0701 11.657900000000001
O 639 12.248000000000001 21.0701 11.657900000000001
O 640 14.5393 13.903499999999998 0.06930000000000547
O 644 15.258700000000001 12.884800000000002 2.26755
O 654 0.6643000000000043 1.665379999999999 3.034670000000002
O 654 0.6643000000000043 1.665379999999999 3.034670000000002
O 659 21.313 0.14999999999999858 20.4616
O 668 21.0977 20.4682 0.42560000000000286
O 668 21.0977 20.4682 0.42560000000000286
