18
Lattice="21.9108 0.0 0.0 0.0 21.9108 0.0 0.0 0.0 21.9108"
Si 811 19.003399999999996 6.89808 11.234300000000001
Si 974 17.8781 6.146380000000001 8.935460000000003
Si 997 15.9314 6.710550000000001 10.730700000000002
O 16 18.053 6.8430399999999985 7.483050000000002
O 40 17.4903 7.085419999999999 10.373900000000003
O 40 17.4903 7.085419999999999 10.373900000000003
O 40 17.4903 7.085419999999999 10.373900000000003
O 206 15.111100000000004 5.455110000000001 11.2073
O 269 18.6718 8.302400000000002 11.9836
O 341 18.457000000000004 5.38673 11.637800000000002
O 401 19.409000000000002 6.589649999999999 9.61413
O 401 19.409000000000002 6.589649999999999 9.61413
O 419 16.163700000000002 7.41479 12.302899999999998
O 560 16.2405 5.838180000000001 8.991429999999998
O 560 16.2405 5.838180000000001 8.991429999999998
O 561 14.913999999999998 7.757300000000001 9.97887
O 576 20.584500000000002 6.579329999999999 11.718799999999998
O 604 18.3265 4.5978400000000015 8.90248
