66
Lattice="21.9108 0.0 0.0 0.0 21.9108 0.0 0.0 0.0 21.9108"
Si 674 4.42239 4.938970000000001 11.741699999999998
Si 731 1.2939000000000007 10.795300000000001 14.566300000000002
Si 749 21.505300000000002 4.581910000000001 17.2578
Si 750 0.7101000000000042 7.344809999999999 18.622200000000003
Si 828 21.8167 9.889950000000002 0.4896000000000029
Si 881 1.3507999999999996 7.5841899999999995 21.2492
Si 894 2.9115399999999987 5.33004 14.844800000000003
Si 950 0.5007000000000019 6.868190000000002 16.092499999999998
Si 989 2.347200000000001 9.206 16.476499999999998
Si 1003 2.400780000000001 3.5905400000000007 13.041499999999996
Si 1007 21.276300000000003 9.13278 14.422700000000003
O 13 21.439599999999995 8.40983 18.7007
O 14 4.13617 6.3703199999999995 14.815899999999996
O 28 21.6013 5.25675 15.581500000000002
O 28 21.6013 5.25675 15.581500000000002
O 84 3.164439999999999 5.66967 11.069700000000001
O 89 0.22070000000000078 6.115870000000001 17.6373
O 89 0.22070000000000078 6.115870000000001 17.6373
O 89 0.22070000000000078 6.115870000000001 17.6373
O 106 2.21575 10.241200000000003 13.305899999999998
O 111 19.6409 9.40511 14.717600000000001
O 122 1.7694800000000015 6.41283 15.346700000000002
O 122 1.7694800000000015 6.41283 15.346700000000002
O 144 3.46462 4.78068 13.326699999999999
O 144 3.46462 4.78068 13.326699999999999
O 144 3.46462 4.78068 13.326699999999999
O 153 19.857399999999995 4.213660000000001 17.186400000000003
O 161 0.41140000000000043 3.13711 16.978199999999998
O 210 1.4245000000000019 12.419799999999999 14.357800000000001
O 218 21.1891 7.6450700000000005 15.4483
O 218 21.1891 7.6450700000000005 15.4483
O 237 3.4011999999999993 8.70128 15.3458
O 249 21.2548 4.266189999999998 18.9108
O 250 0.21119999999999806 6.395769999999999 20.172300000000003
O 250 0.21119999999999806 6.395769999999999 20.172300000000003
O 282 1.3658000000000001 3.966339999999999 11.812499999999996
O 308 1.0825000000000031 10.3432 1.5273000000000039
O 323 2.2543299999999995 2.043009999999999 13.142500000000002
O 329 21.1681 9.12408 2.0138999999999996
O 345 20.405399999999997 10.812000000000001 0.384999999999998
O 349 1.4861000000000004 4.172430000000002 14.2011
O 349 1.4861000000000004 4.172430000000002 14.2011
O 354 3.5097200000000015 9.247049999999998 17.670799999999996
O 410 2.4444599999999994 8.72737 21.6761
O 426 2.1070899999999995 6.325939999999999 0.026200000000002888
O 467 0.3605000000000018 10.442499999999999 20.8494
O 477 21.8948 8.19567 0.1034000000000006
O 477 21.8948 8.19567 0.1034000000000006
O 479 1.3296000000000063 7.992329999999999 17.137399999999996
O 479 1.3296000000000063 7.992329999999999 17.137399999999996
O 479 1.3296000000000063 7.992329999999999 17.137399999999996
O 503 3.9682700000000004 3.2864499999999985 11.656900000000004
O 503 3.9682700000000004 3.2864499999999985 11.656900000000004
O 514 2.3405999999999985 10.9301 16.159199999999995
O 514 2.3405999999999985 10.9301 16.159199999999995
O 526 21.446899999999996 10.8139 14.156499999999998
O 526 21.446899999999996 10.8139 14.156499999999998
O 562 1.8784500000000008 7.717870000000001 19.584100000000003
O 562 1.8784500000000008 7.717870000000001 19.584100000000003
O 575 3.197099999999999 4.413209999999999 16.1656
O 592 0.9243000000000023 9.356019999999997 15.199299999999997
O 592 0.9243000000000023 9.356019999999997 15.199299999999997
O 592 0.9243000000000023 9.356019999999997 15.199299999999997
O 606 5.541920000000001 5.968350000000001 12.300799999999999
O 653 21.4671 8.52112 12.957599999999996
O 655 5.31222 4.640029999999999 10.315999999999999
