12
Lattice="21.9108 0.0 0.0 0.0 21.9108 0.0 0.0 0.0 21.9108"
Si 678 21.7803 0.15780000000000172 14.9256
Si 857 19.237800000000004 1.014400000000002 15.55
O 53 20.049199999999995 2.391829999999999 14.916999999999998
O 99 18.176200000000005 0.6569000000000003 14.332899999999999
O 216 18.6309 21.200799999999997 16.297899999999995
O 259 18.5023 1.9141799999999982 16.762600000000003
O 365 1.0757000000000048 1.1040000000000063 15.503399999999996
O 408 0.5864000000000047 20.642800000000005 15.203500000000002
O 541 20.2983 21.057600000000004 14.306000000000001
O 595 20.6934 0.4730000000000061 16.1638
O 595 20.6934 0.4730000000000061 16.1638
O 663 21.8822 0.7932000000000059 13.389599999999998
