336
Lattice="21.9108 0.0 0.0 0.0 21.9108 0.0 0.0 0.0 21.9108"
Si 679 14.3978 10.127399999999998 14.025499999999997
Si 681 9.52637 4.34994 14.457000000000004
Si 686 18.2492 18.710400000000003 2.2904100000000014
Si 692 8.692719999999998 16.067400000000003 4.810700000000001
Si 696 13.710899999999999 21.6521 11.765200000000004
Si 703 13.081900000000001 13.7364 5.055600000000002
Si 706 9.372029999999999 8.306740000000001 19.723899999999997
Si 714 9.51819 18.378200000000003 3.3817200000000014
Si 715 18.223200000000002 13.165600000000001 13.919900000000002
Si 736 15.1037 14.374199999999998 1.5004000000000062
Si 753 21.401999999999997 19.8601 1.8156999999999996
Si 765 17.043500000000005 15.932399999999998 2.511520000000001
Si 776 13.4421 20.475999999999996 8.950610000000001
Si 778 21.182200000000005 7.238379999999999 4.694610000000001
Si 781 3.900760000000002 13.651099999999996 0.6180000000000021
Si 783 11.454400000000003 6.9222 11.084799999999998
Si 793 15.152799999999996 12.546800000000001 13.554199999999998
Si 794 8.962149999999998 2.535779999999999 18.787000000000003
Si 796 1.2590999999999966 8.85256 5.423909999999999
Si 799 21.0506 0.7931000000000026 2.4749100000000013
Si 814 16.6221 14.206599999999998 12.106999999999996
Si 817 21.712100000000003 1.447099999999999 4.748169999999998
Si 819 19.2011 19.9511 0.17949999999999733
Si 823 3.066600000000001 8.73188 8.083079999999999
Si 831 13.6187 16.4094 6.120459999999998
Si 832 7.4457699999999996 7.758929999999999 14.4997
Si 835 7.3451699999999995 10.817199999999996 19.4813
Si 841 1.3096999999999994 10.770199999999999 8.04438
Si 842 9.168850000000003 6.951740000000001 15.984999999999996
Si 847 9.11938 20.705700000000004 2.2195099999999996
Si 852 20.8051 14.982499999999998 0.10740000000000549
Si 855 11.663700000000002 18.1865 5.7532
Si 869 13.113800000000001 14.543800000000001 14.561400000000003
Si 879 8.542469999999998 0.3658000000000001 12.133
Si 882 1.7031899999999993 16.2415 21.602699999999995
Si 892 11.261799999999997 15.780200000000004 4.29006
Si 897 8.285430000000002 13.673100000000002 20.038999999999998
Si 920 12.6979 7.946650000000002 12.958899999999996
Si 926 5.8114799999999995 14.398099999999996 20.569100000000002
Si 930 15.715799999999998 15.680000000000003 4.67379
Si 936 11.2619 4.803319999999999 12.267999999999997
Si 940 4.7823899999999995 11.186600000000002 1.3090000000000046
Si 941 21.075100000000003 2.8059499999999993 6.8642900000000004
Si 944 9.941689999999998 10.654599999999999 18.909500000000005
Si 949 14.788700000000002 13.8875 16.372600000000002
Si 953 10.552800000000001 1.9307499999999997 11.134600000000002
Si 955 8.6399 4.57245 16.948800000000002
Si 963 0.9191999999999965 13.603800000000003 21.680400000000002
Si 968 12.5455 5.811170000000001 14.2441
Si 971 20.9832 4.559699999999999 5.04711
Si 976 10.812099999999997 9.30629 16.793699999999998
Si 983 14.6981 18.9295 6.480779999999999
Si 984 14.880100000000002 12.557199999999998 18.484999999999996
Si 992 11.630399999999998 0.40460000000000207 13.005500000000001
Si 996 17.258099999999995 17.0932 11.4498
Si 1004 19.7086 16.906699999999997 11.964000000000002
O 2 12.433800000000002 19.130300000000002 4.717790000000001
O 6 10.1632 0.9003999999999976 12.4194
O 6 10.1632 0.9003999999999976 12.4194
O 6 10.1632 0.9003999999999976 12.4194
O 19 17.0829 16.557100000000002 4.145419999999998
O 19 17.0829 16.557100000000002 4.145419999999998
O 23 4.2020599999999995 9.20572 6.95607
O 26 3.50676 12.083000000000002 0.5608999999999966
O 26 3.50676 12.083000000000002 0.5608999999999966
O 27 1.0859000000000023 0.5838000000000036 5.168800000000001
O 29 19.517499999999995 0.7804999999999964 1.6562100000000015
O 30 12.846799999999998 7.865840000000002 11.117299999999997
O 30 12.846799999999998 7.865840000000002 11.117299999999997
O 31 16.040199999999995 11.6711 19.2722
O 32 5.361280000000001 12.798100000000002 1.3864000000000019
O 32 5.361280000000001 12.798100000000002 1.3864000000000019
O 35 6.313839999999999 10.623299999999997 1.6761300000000006
O 39 4.037119999999998 10.8657 2.7537899999999986
O 42 20.152200000000004 16.2726 21.256899999999998
O 47 0.12259999999999849 18.459299999999995 2.2902699999999996
O 48 9.91759 15.855599999999999 3.444559999999999
O 48 9.91759 15.855599999999999 3.444559999999999
O 49 10.746999999999996 1.6899100000000011 9.43563
O 50 12.1341 1.5848000000000013 11.815000000000001
O 50 12.1341 1.5848000000000013 11.815000000000001
O 60 13.642300000000002 15.8464 13.744800000000001
O 63 14.725599999999996 11.2225 12.763299999999997
O 63 14.725599999999996 11.2225 12.763299999999997
O 65 10.391000000000002 7.7677499999999995 16.642800000000005
O 65 10.391000000000002 7.7677499999999995 16.642800000000005
O 67 10.345000000000002 19.8289 3.3064
O 67 10.345000000000002 19.8289 3.3064
O 68 7.404389999999999 3.982310000000002 18.013699999999996
O 68 7.404389999999999 3.982310000000002 18.013699999999996
O 71 5.88625 8.46743 14.618100000000002
O 77 4.767039999999998 13.210000000000004 20.282
O 85 15.640200000000004 15.313300000000002 16.312700000000003
O 87 11.221500000000002 0.5292999999999992 14.539600000000004
O 97 0.20190000000000197 7.6913599999999995 6.20833
O 97 0.20190000000000197 7.6913599999999995 6.20833
O 100 6.863099999999999 14.024600000000003 19.135
O 100 6.863099999999999 14.024600000000003 19.135
O 102 12.661399999999997 3.9927600000000005 12.224
O 105 10.442400000000003 9.023120000000002 18.6405
O 105 10.442400000000003 9.023120000000002 18.6405
O 105 10.442400000000003 9.023120000000002 18.6405
O 112 11.0063 19.146399999999996 6.910149999999998
O 116 13.978100000000001 15.168800000000001 4.92521
O 116 13.978100000000001 15.168800000000001 4.92521
O 116 13.978100000000001 15.168800000000001 4.92521
O 121 12.462700000000002 9.553889999999999 17.008599999999998
O 124 1.9993499999999997 7.588910000000002 7.909670000000002
O 125 12.027200000000004 13.912200000000002 6.31635
O 126 14.3158 12.989999999999998 5.804010000000002
O 128 9.99063 15.293499999999998 5.586680000000001
O 128 9.99063 15.293499999999998 5.586680000000001
O 129 7.147970000000001 11.002100000000002 21.2
O 133 8.337019999999999 12.142700000000001 19.2687
O 133 8.337019999999999 12.142700000000001 19.2687
O 133 8.337019999999999 12.142700000000001 19.2687
O 134 10.560399999999998 7.965150000000001 10.170399999999997
O 135 5.728550000000002 11.0789 19.2156
O 136 16.5153 14.613899999999997 5.59526
O 139 9.13269 7.2482299999999995 14.318499999999997
O 139 9.13269 7.2482299999999995 14.318499999999997
O 140 8.016169999999999 8.19435 15.974500000000003
O 140 8.016169999999999 8.19435 15.974500000000003
O 143 8.374399999999998 21.904999999999998 3.08315
O 145 4.762530000000002 9.949090000000002 0.11869999999999692
O 148 21.7007 8.838429999999999 4.417909999999999
O 148 21.7007 8.838429999999999 4.417909999999999
O 150 10.167300000000001 8.524049999999999 21.220200000000002
O 158 3.4398000000000017 14.054799999999997 2.237960000000001
O 163 20.065 2.632570000000001 8.11223
O 164 15.59 11.343500000000002 14.803900000000002
O 164 15.59 11.343500000000002 14.803900000000002
O 166 8.92063 3.223420000000001 20.245699999999996
O 167 15.117299999999997 16.947299999999995 5.642050000000001
O 167 15.117299999999997 16.947299999999995 5.642050000000001
O 167 15.117299999999997 16.947299999999995 5.642050000000001
O 168 12.491600000000002 7.370149999999999 14.545300000000001
O 168 12.491600000000002 7.370149999999999 14.545300000000001
O 170 8.08268 16.631899999999998 6.315909999999999
O 172 7.77045 1.4872000000000014 18.6679
O 175 12.764999999999997 5.13504 15.741499999999998
O 176 20.857700000000005 15.5228 1.785969999999999
O 181 9.98077 17.756899999999998 1.8086999999999982
O 185 20.8849 1.2535000000000025 6.293340000000001
O 185 20.8849 1.2535000000000025 6.293340000000001
O 192 13.7285 21.642300000000002 10.063300000000002
O 192 13.7285 21.642300000000002 10.063300000000002
O 199 9.88108 2.7878800000000012 14.529300000000003
O 201 18.305199999999996 17.3409 12.813399999999998
O 201 18.305199999999996 17.3409 12.813399999999998
O 202 13.354699999999998 14.780799999999996 16.151999999999997
O 202 13.354699999999998 14.780799999999996 16.151999999999997
O 203 14.133 5.581320000000002 13.7747
O 212 8.13628 17.344199999999997 3.9995900000000013
O 212 8.13628 17.344199999999997 3.9995900000000013
O 214 16.6962 12.828700000000001 13.198000000000004
O 214 16.6962 12.828700000000001 13.198000000000004
O 214 16.6962 12.828700000000001 13.198000000000004
O 220 1.2580000000000027 12.791499999999996 20.189000000000004
O 223 18.802400000000002 21.5755 21.487
O 225 10.398599999999998 3.516819999999999 11.459300000000002
O 225 10.398599999999998 3.516819999999999 11.459300000000002
O 229 12.782799999999998 12.2773 4.222819999999999
O 230 7.993970000000001 3.979400000000002 15.501500000000004
O 230 7.993970000000001 3.979400000000002 15.501500000000004
O 233 16.428499999999996 18.443899999999996 11.423600000000004
O 235 11.041 4.90072 13.886599999999998
O 235 11.041 4.90072 13.886599999999998
O 235 11.041 4.90072 13.886599999999998
O 238 19.960599999999996 13.221 14.107099999999999
O 246 17.4524 16.1497 10.094400000000004
O 253 20.386099999999995 4.347539999999999 6.49146
O 253 20.386099999999995 4.347539999999999 6.49146
O 254 16.875600000000002 13.806700000000003 10.559900000000003
O 255 13.864 12.630700000000001 17.112400000000004
O 255 13.864 12.630700000000001 17.112400000000004
O 260 14.603800000000003 13.602100000000004 14.699099999999998
O 260 14.603800000000003 13.602100000000004 14.699099999999998
O 260 14.603800000000003 13.602100000000004 14.699099999999998
O 273 7.2781400000000005 7.97522 12.856300000000001
O 274 8.446729999999999 20.465799999999998 0.7432999999999979
O 276 2.481300000000001 9.98969 8.88768
O 276 2.481300000000001 9.98969 8.88768
O 277 13.2244 21.728599999999997 13.526700000000002
O 277 13.2244 21.728599999999997 13.526700000000002
O 284 4.9888200000000005 14.894099999999998 0.12859999999999872
O 284 4.9888200000000005 14.894099999999998 0.12859999999999872
O 285 7.64573 14.8083 4.598659999999999
O 288 2.9512800000000006 16.6619 20.6538
O 291 11.076699999999999 11.582400000000003 19.4731
O 293 20.495 7.098499999999998 3.1707199999999993
O 299 0.4540000000000006 15.2407 21.374599999999997
O 299 0.4540000000000006 15.2407 21.374599999999997
O 299 0.4540000000000006 15.2407 21.374599999999997
O 307 20.8597 17.9616 12.018200000000004
O 309 10.536199999999997 9.732890000000001 15.1692
O 312 2.2731400000000015 7.675280000000001 5.023759999999999
O 313 20.0498 15.6981 10.912000000000003
O 321 19.7666 19.1891 1.6486300000000007
O 321 19.7666 19.1891 1.6486300000000007
O 321 19.7666 19.1891 1.6486300000000007
O 322 17.6827 17.2204 1.7318999999999996
O 322 17.6827 17.2204 1.7318999999999996
O 333 7.425810000000002 10.507900000000003 17.6568
O 335 12.174899999999997 6.324020000000001 12.561699999999998
O 335 12.174899999999997 6.324020000000001 12.561699999999998
O 335 12.174899999999997 6.324020000000001 12.561699999999998
O 335 12.174899999999997 6.324020000000001 12.561699999999998
O 337 7.829280000000001 7.9114 19.2426
O 343 14.903499999999998 13.697 12.242100000000004
O 343 14.903499999999998 13.697 12.242100000000004
O 350 14.968599999999999 19.2923 4.906679999999998
O 351 10.305800000000001 17.904300000000003 4.782889999999998
O 351 10.305800000000001 17.904300000000003 4.782889999999998
O 353 16.9909 19.180900000000005 3.2375000000000007
O 363 14.7028 14.246300000000002 18.9076
O 364 17.766500000000004 19.749099999999995 0.9798000000000044
O 364 17.766500000000004 19.749099999999995 0.9798000000000044
O 370 11.924000000000003 5.67605 10.133399999999998
O 373 15.644299999999998 15.105599999999999 3.045639999999999
O 373 15.644299999999998 15.105599999999999 3.045639999999999
O 373 15.644299999999998 15.105599999999999 3.045639999999999
O 386 19.191399999999998 14.3537 0.6593000000000018
O 387 7.021699999999999 6.161539999999999 14.7488
O 389 18.876699999999996 17.876100000000005 10.6923
O 389 18.876699999999996 17.876100000000005 10.6923
O 392 1.90165 9.77964 4.03725
O 393 19.907800000000005 6.53481 5.49296
O 393 19.907800000000005 6.53481 5.49296
O 396 10.227500000000003 5.888929999999998 11.618100000000002
O 396 10.227500000000003 5.888929999999998 11.618100000000002
O 397 19.9504 4.176020000000001 3.884129999999999
O 412 14.482299999999999 1.1047000000000011 12.090100000000003
O 418 13.017 10.928700000000003 14.435500000000001
O 427 20.3516 1.2872000000000057 3.8976000000000006
O 427 20.3516 1.2872000000000057 3.8976000000000006
O 430 1.1336000000000013 12.267900000000001 9.34396
O 435 8.78558 1.4457000000000022 10.671200000000002
O 435 8.78558 1.4457000000000022 10.671200000000002
O 436 0.4975000000000023 2.70054 7.622
O 438 21.6519 0.7858000000000018 0.8682999999999979
O 439 12.0628 16.4733 5.628800000000002
O 439 12.0628 16.4733 5.628800000000002
O 439 12.0628 16.4733 5.628800000000002
O 440 19.489500000000003 18.944600000000005 20.838000000000005
O 441 21.6788 3.0932700000000004 5.18383
O 441 21.6788 3.0932700000000004 5.18383
O 441 21.6788 3.0932700000000004 5.18383
O 442 19.055900000000005 17.9926 3.5943599999999982
O 449 18.2634 11.733700000000002 14.8047
O 451 1.007700000000007 12.108500000000003 7.151329999999998
O 452 14.270999999999997 19.2223 9.41385
O 453 12.043600000000001 19.6664 9.85574
O 455 11.9132 14.3614 3.888090000000002
O 455 11.9132 14.3614 3.888090000000002
O 463 14.893899999999999 20.4704 11.8509
O 464 14.370900000000002 20.4025 7.29571
O 464 14.370900000000002 20.4025 7.29571
O 469 9.736169999999998 6.693100000000001 19.5707
O 471 16.1369 18.743099999999995 7.19369
O 475 8.669270000000001 21.257299999999997 13.3565
O 476 13.9158 15.6476 1.3622000000000014
O 478 7.68937 1.7636299999999991 12.5598
O 490 8.73827 4.682780000000001 13.075399999999998
O 491 8.237829999999999 6.208929999999999 17.273
O 491 8.237829999999999 6.208929999999999 17.273
O 493 16.500899999999998 15.837399999999999 12.2604
O 493 16.500899999999998 15.837399999999999 12.2604
O 498 8.738769999999999 9.92436 19.7737
O 498 8.738769999999999 9.92436 19.7737
O 498 8.738769999999999 9.92436 19.7737
O 499 18.289799999999996 14.132099999999998 12.5277
O 499 18.289799999999996 14.132099999999998 12.5277
O 505 21.136800000000004 13.455000000000002 21.550899999999995
O 505 21.136800000000004 13.455000000000002 21.550899999999995
O 520 1.117600000000003 20.404099999999996 1.0784999999999982
O 528 21.2873 21.1277 2.781880000000001
O 528 21.2873 21.1277 2.781880000000001
O 529 9.752030000000001 5.31373 15.7925
O 529 9.752030000000001 5.31373 15.7925
O 529 9.752030000000001 5.31373 15.7925
O 530 15.974500000000003 13.009699999999999 17.125600000000002
O 530 15.974500000000003 13.009699999999999 17.125600000000002
O 534 4.223890000000001 8.13938 9.03442
O 539 13.878499999999999 8.96582 13.106800000000003
O 539 13.878499999999999 8.96582 13.106800000000003
O 542 12.383399999999998 16.673600000000004 3.2932200000000016
O 543 11.538500000000003 15.063599999999997 14.8753
O 544 13.361 18.026800000000005 6.748670000000001
O 544 13.361 18.026800000000005 6.748670000000001
O 544 13.361 18.026800000000005 6.748670000000001
O 545 5.37377 15.686800000000002 19.632900000000003
O 549 9.61488 3.5519099999999995 17.6945
O 549 9.61488 3.5519099999999995 17.6945
O 553 9.331500000000002 14.777899999999999 19.334299999999995
O 556 10.184700000000003 1.3457000000000008 18.975400000000004
O 557 20.189199999999996 15.942199999999996 13.392099999999996
O 564 12.312499999999996 21.176600000000004 7.958819999999999
O 570 13.896200000000004 15.551300000000001 7.411909999999999
O 579 18.303099999999997 14.979200000000002 2.855699999999999
O 585 9.411739999999998 13.2743 21.2364
O 587 14.660300000000003 9.181720000000002 15.409000000000002
O 588 16.632 14.977599999999999 0.9699000000000026
O 588 16.632 14.977599999999999 0.9699000000000026
O 590 0.08670000000000044 5.7052499999999995 4.673259999999999
O 590 0.08670000000000044 5.7052499999999995 4.673259999999999
O 594 1.6179200000000016 16.521399999999996 1.3133000000000052
O 596 2.5510400000000004 14.317800000000002 21.804
O 596 2.5510400000000004 14.317800000000002 21.804
O 596 2.5510400000000004 14.317800000000002 21.804
O 601 0.9147000000000034 13.229400000000002 1.3689000000000036
O 603 0.05310000000000059 9.971500000000002 8.51588
O 607 7.265699999999999 21.4757 11.455700000000004
O 612 10.3918 21.5005 1.6436799999999998
O 615 0.813600000000001 17.762200000000004 21.1309
O 617 10.074099999999998 10.799000000000003 17.3025
O 617 10.074099999999998 10.799000000000003 17.3025
O 619 8.162380000000002 19.38 2.8908999999999985
O 619 8.162380000000002 19.38 2.8908999999999985
O 625 12.493500000000001 13.345200000000002 13.617999999999999
O 626 13.679199999999998 12.026999999999997 19.4778
O 627 17.827300000000005 14.337100000000003 15.047799999999999
O 637 1.7037499999999994 9.772670000000002 6.66301
O 637 1.7037499999999994 9.772670000000002 6.66301
O 637 1.7037499999999994 9.772670000000002 6.66301
O 639 12.0196 21.161200000000004 11.832800000000002
O 639 12.0196 21.161200000000004 11.832800000000002
O 640 14.517700000000001 13.8524 0.08319999999999794
O 644 15.413900000000002 12.828300000000002 2.066130000000001
O 648 7.2439800000000005 14.0271 21.3205
O 648 7.2439800000000005 14.0271 21.3205
O 650 11.196099999999998 8.6433 12.8306
O 654 0.4888000000000048 1.6416599999999981 3.06944
O 654 0.4888000000000048 1.6416599999999981 3.06944
O 668 20.818099999999998 20.605699999999995 0.30590000000000117
O 668 20.818099999999998 20.605699999999995 0.30590000000000117
