6
Lattice="21.9108 0.0 0.0 0.0 21.9108 0.0 0.0 0.0 21.9108"
Si 721 7.52412 6.425450000000001 3.493829999999999
O 90 6.248079999999998 6.821850000000001 4.436209999999999
O 257 8.620059999999999 5.80977 4.723269999999999
O 278 8.747130000000002 7.5206599999999995 3.2149099999999997
O 515 6.548559999999998 7.501459999999998 2.2283700000000017
O 613 7.31053 5.211179999999999 2.4874699999999983
