6
Lattice="21.9108 0.0 0.0 0.0 21.9108 0.0 0.0 0.0 21.9108"
Si 834 3.750910000000001 19.9656 7.11497
O 62 5.31634 20.3231 6.848009999999999
O 197 3.00835 21.1489 6.243600000000001
O 243 3.272919999999999 20.8169 8.559259999999998
O 248 3.9777400000000007 18.578 8.108270000000001
O 437 3.7278100000000016 18.8734 5.60849
