30
Lattice="21.9108 0.0 0.0 0.0 21.9108 0.0 0.0 0.0 21.9108"
Si 698 14.939699999999998 0.867600000000003 17.1664
Si 752 13.5932 21.91 21.402600000000003
Si 870 13.8248 20.528199999999995 18.7221
Si 901 13.538500000000003 2.404889999999998 15.6891
Si 965 15.679600000000004 19.668699999999998 20.546000000000003
O 34 16.397299999999998 1.0544999999999973 16.549900000000004
O 43 14.9314 3.3923999999999985 15.483100000000004
O 57 12.693899999999996 21.7936 18.830899999999996
O 78 14.9742 18.784000000000002 21.6596
O 83 12.848699999999997 20.500600000000002 0.34479999999999933
O 162 14.190499999999997 0.7764000000000024 15.636300000000002
O 162 14.190499999999997 0.7764000000000024 15.636300000000002
O 205 16.9663 18.6745 20.107399999999995
O 251 11.907799999999998 2.32151 15.9864
O 265 14.345899999999997 1.2646999999999977 20.6619
O 266 15.092299999999998 19.2508 18.9453
O 266 15.092299999999998 19.2508 18.9453
O 271 12.002500000000001 0.5810999999999993 21.126500000000004
O 330 12.746399999999998 19.4008 18.2987
O 381 13.180299999999999 2.32629 13.9727
O 424 14.758 21.2704 17.623900000000003
O 424 14.758 21.2704 17.623900000000003
O 487 14.4042 0.27650000000000574 0.9012999999999991
O 504 15.767999999999997 1.5332000000000008 18.653500000000005
O 527 13.889099999999996 2.1564499999999995 17.311900000000005
O 527 13.889099999999996 2.1564499999999995 17.311900000000005
O 536 16.543000000000003 21.008999999999997 20.8389
O 569 14.191100000000002 20.738399999999995 20.382
O 569 14.191100000000002 20.738399999999995 20.382
O 569 14.191100000000002 20.738399999999995 20.382
