6
Lattice="21.9108 0.0 0.0 0.0 21.9108 0.0 0.0 0.0 21.9108"
Si 805 1.7914199999999987 3.291979999999999 20.3948
O 294 0.5245000000000033 2.280339999999999 20.184099999999997
O 339 2.7936699999999988 2.320789999999999 19.4216
O 359 2.0916999999999994 4.599979999999999 19.4453
O 555 0.6433000000000035 4.2866800000000005 21.408799999999996
O 571 2.8618799999999993 3.1212799999999987 21.7229
