6
Lattice="21.9108 0.0 0.0 0.0 21.9108 0.0 0.0 0.0 21.9108"
Si 825 14.914199999999997 1.5991399999999985 4.42568
O 369 15.8355 2.67174 5.338919999999998
O 377 15.465100000000003 0.6582000000000008 3.260249999999999
O 415 13.906400000000001 0.7605000000000004 5.404419999999998
O 508 16.103199999999998 0.08109999999999928 5.452180000000002
O 577 13.930199999999996 2.4572900000000004 3.456299999999999
