54
Lattice="21.9108 0.0 0.0 0.0 21.9108 0.0 0.0 0.0 21.9108"
Si 678 21.801799999999997 0.051300000000004786 14.8899
Si 698 14.6726 0.9716000000000022 17.2017
Si 752 13.452700000000004 21.847800000000003 21.4355
Si 802 16.9633 4.30369 19.2882
Si 854 16.9742 1.722059999999999 17.792399999999997
Si 857 19.196099999999998 1.0330000000000013 15.744499999999999
Si 870 13.605799999999999 20.5189 18.722000000000005
Si 901 13.330499999999997 2.529160000000001 15.615199999999998
Si 965 15.4312 19.658600000000003 20.519100000000005
O 34 16.219800000000003 0.9508999999999972 16.5087
O 34 16.219800000000003 0.9508999999999972 16.5087
O 43 14.804300000000001 3.304449999999999 15.536199999999997
O 53 19.773999999999997 2.4905800000000013 15.193499999999997
O 57 12.610299999999999 0.09590000000000032 18.883
O 66 17.233699999999995 5.61009 18.2289
O 78 14.810500000000001 18.792799999999996 21.7283
O 83 12.729499999999998 20.495900000000002 0.38709999999999667
O 99 18.3706 0.5938999999999979 14.389300000000002
O 162 13.881600000000002 0.860199999999999 15.637600000000003
O 162 13.881600000000002 0.860199999999999 15.637600000000003
O 205 16.7493 18.641000000000002 20.175499999999996
O 216 18.766900000000003 21.291499999999996 16.454199999999997
O 251 11.7039 2.29214 16.012799999999995
O 259 18.446 1.8906400000000012 16.998699999999996
O 259 18.446 1.8906400000000012 16.998699999999996
O 265 14.065999999999999 1.3211999999999975 20.718100000000003
O 266 14.860299999999999 19.3055 18.9671
O 266 14.860299999999999 19.3055 18.9671
O 271 11.833499999999997 0.5441000000000003 21.256399999999996
O 330 12.4729 19.529 18.329000000000004
O 344 17.6716 0.41499999999999915 18.6127
O 365 1.1548000000000016 1.0324000000000026 15.5181
O 381 13.070800000000002 2.49024 13.926100000000002
O 408 0.6878000000000029 20.5489 15.153099999999998
O 413 16.535999999999998 3.31043 17.5052
O 413 16.535999999999998 3.31043 17.5052
O 424 14.418099999999999 21.318499999999997 17.5573
O 424 14.418099999999999 21.318499999999997 17.5573
O 480 17.258800000000004 5.173089999999998 20.6127
O 487 14.183400000000002 0.22829999999999728 1.0035000000000025
O 504 15.541999999999998 1.4684999999999988 18.6433
O 504 15.541999999999998 1.4684999999999988 18.6433
O 527 13.652399999999997 2.3293999999999997 17.387399999999996
O 527 13.652399999999997 2.3293999999999997 17.387399999999996
O 536 16.2141 20.990999999999996 21.0005
O 541 20.3068 20.840299999999996 14.2137
O 569 14.022099999999998 20.693700000000003 20.4061
O 569 14.022099999999998 20.693700000000003 20.4061
O 569 14.022099999999998 20.693700000000003 20.4061
O 595 20.7871 0.4975999999999985 16.0305
O 595 20.7871 0.4975999999999985 16.0305
O 610 15.611500000000003 3.6335900000000017 19.8659
O 663 21.8785 0.7959999999999994 13.483799999999999
O 666 18.2632 3.292539999999999 19.150000000000002
