12
Lattice="21.9108 0.0 0.0 0.0 21.9108 0.0 0.0 0.0 21.9108"
Si 690 12.138000000000002 11.8783 0.6730000000000018
Si 848 14.795600000000004 10.053 21.887399999999996
O 70 13.884200000000003 8.761100000000003 21.455700000000004
O 132 15.458299999999998 9.30349 1.3258999999999972
O 217 15.967099999999999 11.424600000000002 0.10600000000000165
O 348 11.014300000000002 10.864799999999999 21.831799999999998
O 367 13.490999999999996 11.044999999999998 0.36710000000000065
O 367 13.490999999999996 11.044999999999998 0.36710000000000065
O 394 15.869600000000002 9.642010000000003 20.5433
O 432 12.1726 13.037400000000002 21.308599999999995
O 496 12.737300000000001 13.380100000000002 1.5825199999999988
O 568 11.799499999999998 11.321099999999998 2.2182899999999997
