348
Lattice="21.9108 0.0 0.0 0.0 21.9108 0.0 0.0 0.0 21.9108"
Si 679 14.529500000000002 10.2317 14.0027
Si 681 9.63408 4.334620000000001 14.355
Si 686 18.2807 18.6983 2.3773400000000002
Si 690 12.305899999999998 11.9907 0.8200000000000003
Si 692 8.82565 16.064900000000005 4.572150000000001
Si 696 13.794300000000003 21.421199999999995 11.6664
Si 703 13.2302 13.763299999999997 5.073540000000001
Si 706 9.42832 8.215019999999999 19.722400000000004
Si 714 9.662310000000002 18.315499999999997 3.317
Si 715 18.293000000000003 13.316599999999998 14.018200000000004
Si 720 14.495100000000004 2.14527 8.91666
Si 736 15.116600000000002 14.381200000000003 1.609020000000001
Si 753 21.3935 19.827 1.8683799999999984
Si 765 17.138900000000003 15.8368 2.416170000000001
Si 776 13.3736 20.2893 8.84469
Si 781 4.072129999999998 13.571899999999996 0.4340000000000046
Si 783 11.675099999999997 6.886659999999999 10.953700000000001
Si 793 15.1844 12.6324 13.461000000000002
Si 799 21.1621 0.7518999999999991 2.3910300000000007
Si 810 5.64274 16.0951 1.0056000000000012
Si 814 16.7529 14.277399999999997 12.108
Si 817 21.853599999999997 1.4497 4.71172
Si 819 19.199700000000004 19.9663 0.2833000000000041
Si 831 13.7664 16.4153 6.171849999999999
Si 832 7.653130000000001 7.661339999999999 14.450599999999998
Si 835 7.4626100000000015 10.947700000000001 19.3822
Si 842 9.39478 6.845760000000002 16.038300000000003
Si 843 16.833300000000005 1.0463999999999984 8.65974
Si 847 9.24971 20.6683 2.1145500000000013
Si 848 14.769400000000001 10.161100000000001 21.9087
Si 850 16.817599999999995 11.7559 20.5761
Si 852 20.8856 14.799899999999997 21.8772
Si 855 11.866899999999998 18.102100000000004 5.73704
Si 868 15.9342 1.9859100000000005 11.485299999999999
Si 869 13.086099999999998 14.5333 14.439000000000004
Si 879 8.555060000000001 0.4748999999999981 12.2976
Si 897 8.53274 13.691399999999998 20.114100000000004
Si 910 4.372710000000001 17.806499999999996 2.721589999999999
Si 920 12.783200000000004 7.914089999999998 12.946499999999997
Si 926 5.91084 14.415400000000002 20.544
Si 930 15.758199999999999 15.8034 4.6401900000000005
Si 936 11.4451 4.799019999999999 12.066500000000001
Si 940 4.942599999999999 11.192000000000004 1.193800000000003
Si 941 21.095700000000004 2.739139999999999 6.829840000000001
Si 944 9.862179999999999 10.667100000000001 18.8813
Si 949 14.764199999999999 13.909499999999998 16.3338
Si 953 10.606599999999997 1.8878200000000014 11.018899999999999
Si 955 8.640699999999999 4.39208 16.875600000000002
Si 956 8.98022 5.113420000000001 11.037099999999999
Si 963 1.2222000000000008 13.567600000000002 21.3214
Si 968 12.729699999999998 5.70044 14.182500000000001
Si 976 10.9922 9.285819999999998 16.809499999999996
Si 983 14.911199999999997 18.772000000000002 6.443380000000001
Si 984 14.885299999999997 12.6741 18.4716
Si 992 11.743399999999998 0.2910000000000039 12.877300000000002
Si 996 17.431899999999995 17.1347 11.169599999999999
Si 1002 7.364429999999999 10.194399999999998 0.3266000000000062
Si 1004 19.746099999999995 16.8374 12.047900000000002
O 2 12.461499999999997 19.1365 4.516539999999999
O 6 10.1508 0.6709000000000032 12.206
O 6 10.1508 0.6709000000000032 12.206
O 6 10.1508 0.6709000000000032 12.206
O 8 4.080829999999999 16.959299999999995 4.084710000000001
O 12 8.054379999999998 3.784089999999999 10.702299999999997
O 19 17.1358 16.6337 3.9418499999999987
O 19 17.1358 16.6337 3.9418499999999987
O 26 3.6529300000000013 12.010900000000003 0.4491000000000014
O 26 3.6529300000000013 12.010900000000003 0.4491000000000014
O 27 1.1839000000000013 0.5844000000000023 5.03529
O 29 19.574 0.6125000000000043 1.7321099999999987
O 30 13.106999999999996 7.804919999999999 11.1146
O 30 13.106999999999996 7.804919999999999 11.1146
O 31 16.102 11.950700000000001 19.233900000000002
O 31 16.102 11.950700000000001 19.233900000000002
O 32 5.404509999999998 12.795799999999996 1.3310999999999993
O 32 5.404509999999998 12.795799999999996 1.3310999999999993
O 33 18.260299999999997 11.120000000000001 20.5104
O 35 6.505030000000001 10.735299999999999 1.6010500000000008
O 35 6.505030000000001 10.735299999999999 1.6010500000000008
O 37 17.228599999999997 13.3355 20.8466
O 39 4.158649999999998 10.597800000000003 2.5097699999999996
O 42 20.284299999999998 16.162699999999997 21.243599999999997
O 47 0.15090000000000003 18.450299999999995 2.5347100000000005
O 48 9.93749 15.735200000000003 3.3475800000000007
O 49 10.854600000000001 1.7441500000000012 9.354850000000003
O 50 12.095000000000002 1.5616999999999983 11.797900000000002
O 50 12.095000000000002 1.5616999999999983 11.797900000000002
O 60 13.767799999999998 15.904599999999999 13.564699999999998
O 63 14.845499999999998 11.241299999999999 12.6767
O 63 14.845499999999998 11.241299999999999 12.6767
O 65 10.655399999999997 7.690639999999998 16.5924
O 65 10.655399999999997 7.690639999999998 16.5924
O 67 10.349100000000004 19.846299999999996 3.2155500000000004
O 67 10.349100000000004 19.846299999999996 3.2155500000000004
O 68 7.419840000000001 3.77431 17.9179
O 70 13.756800000000002 8.96949 21.4667
O 71 6.130510000000001 8.372879999999999 14.4911
O 76 4.7555900000000015 19.4614 2.9170799999999986
O 77 4.993559999999999 13.0733 20.258099999999995
O 85 15.6709 15.3126 16.1919
O 87 11.218900000000001 0.3305000000000007 14.348600000000001
O 100 7.09806 13.9087 19.037199999999995
O 100 7.09806 13.9087 19.037199999999995
O 102 12.8824 3.9783599999999986 12.037200000000002
O 105 10.333499999999997 9.037769999999998 18.5269
O 105 10.333499999999997 9.037769999999998 18.5269
O 105 10.333499999999997 9.037769999999998 18.5269
O 112 11.067400000000003 19.1135 6.810019999999998
O 116 14.1339 15.267999999999997 4.887229999999999
O 116 14.1339 15.267999999999997 4.887229999999999
O 116 14.1339 15.267999999999997 4.887229999999999
O 121 12.5461 9.44961 16.922099999999997
O 125 12.183499999999999 13.988800000000001 6.390409999999999
O 126 14.474900000000002 13.121500000000001 5.956430000000001
O 128 10.0487 15.3169 5.51952
O 129 7.33409 11.3141 21.053099999999997
O 129 7.33409 11.3141 21.053099999999997
O 132 15.321499999999997 9.41111 1.3895000000000053
O 133 8.772769999999998 12.1142 19.1713
O 133 8.772769999999998 12.1142 19.1713
O 133 8.772769999999998 12.1142 19.1713
O 134 10.826400000000003 8.00374 10.148999999999997
O 135 5.910409999999999 10.974500000000003 19.1395
O 136 16.6534 14.8203 5.60669
O 139 9.403870000000001 7.17465 14.3655
O 139 9.403870000000001 7.17465 14.3655
O 140 8.19163 8.010160000000003 15.980999999999998
O 140 8.19163 8.010160000000003 15.980999999999998
O 143 8.47692 0.05290000000000106 2.797270000000001
O 145 5.142880000000002 10.078300000000002 0.001100000000000989
O 145 5.142880000000002 10.078300000000002 0.001100000000000989
O 150 10.120100000000004 8.51999 21.1983
O 158 3.3431299999999986 14.220299999999998 1.8438499999999998
O 163 19.9522 2.5525100000000016 8.01662
O 164 15.600800000000003 11.487399999999997 14.734100000000002
O 164 15.600800000000003 11.487399999999997 14.734100000000002
O 167 15.269200000000001 17.054100000000002 5.6876
O 167 15.269200000000001 17.054100000000002 5.6876
O 167 15.269200000000001 17.054100000000002 5.6876
O 168 12.675799999999999 7.325230000000001 14.456
O 168 12.675799999999999 7.325230000000001 14.456
O 170 8.214189999999999 16.767800000000005 6.168150000000001
O 174 15.150299999999998 0.9429000000000016 7.82113
O 174 15.150299999999998 0.9429000000000016 7.82113
O 175 12.932300000000001 5.056290000000001 15.669999999999998
O 176 21.004699999999996 15.142099999999996 1.5895499999999991
O 181 10.0369 17.672899999999995 1.8978399999999986
O 185 21.0639 1.1079000000000008 6.25563
O 185 21.0639 1.1079000000000008 6.25563
O 187 7.874570000000002 6.236900000000002 10.805499999999999
O 192 13.8997 21.368999999999996 9.97927
O 192 13.8997 21.368999999999996 9.97927
O 199 10.090500000000002 2.706990000000001 14.3385
O 201 18.303 17.2424 12.772200000000002
O 201 18.303 17.2424 12.772200000000002
O 202 13.2745 14.744699999999998 16.151099999999996
O 202 13.2745 14.744699999999998 16.151099999999996
O 203 14.290200000000002 5.44744 13.656900000000004
O 212 8.32919 17.441399999999998 3.7912
O 212 8.32919 17.441399999999998 3.7912
O 214 16.783200000000004 13.014099999999996 13.234300000000001
O 214 16.783200000000004 13.014099999999996 13.234300000000001
O 214 16.783200000000004 13.014099999999996 13.234300000000001
O 217 15.995999999999999 11.482699999999998 0.14869999999999806
O 217 15.995999999999999 11.482699999999998 0.14869999999999806
O 220 1.3581000000000003 12.6401 19.969000000000005
O 223 18.813799999999997 21.5001 21.445199999999996
O 225 10.6176 3.500959999999999 11.365100000000002
O 225 10.6176 3.500959999999999 11.365100000000002
O 229 12.9498 12.401999999999997 4.214169999999999
O 230 8.117729999999998 3.9399499999999996 15.363299999999999
O 230 8.117729999999998 3.9399499999999996 15.363299999999999
O 233 16.470899999999997 18.404700000000002 11.261500000000002
O 235 11.227 4.8276 13.7683
O 235 11.227 4.8276 13.7683
O 235 11.227 4.8276 13.7683
O 238 19.9819 13.212100000000003 14.164399999999997
O 246 17.5802 16.194399999999998 9.78737
O 253 20.534000000000002 4.35633 6.532360000000001
O 254 17.119899999999998 13.827899999999996 10.6191
O 255 13.827099999999998 12.587500000000002 17.0444
O 255 13.827099999999998 12.587500000000002 17.0444
O 260 14.5836 13.651500000000002 14.638200000000001
O 260 14.5836 13.651500000000002 14.638200000000001
O 260 14.5836 13.651500000000002 14.638200000000001
O 264 15.141699999999997 3.0975 12.526500000000002
O 273 7.552130000000002 7.750049999999998 12.743500000000001
O 274 8.59779 20.317400000000003 0.6810000000000045
O 275 17.194 2.26624 7.586030000000001
O 277 13.273099999999996 21.48 13.4374
O 277 13.273099999999996 21.48 13.4374
O 281 13.793400000000002 2.6445299999999996 10.402899999999999
O 284 5.178519999999999 14.839499999999997 21.908399999999997
O 284 5.178519999999999 14.839499999999997 21.908399999999997
O 284 5.178519999999999 14.839499999999997 21.908399999999997
O 285 7.670159999999999 14.952200000000001 4.529340000000001
O 291 11.146800000000002 11.2897 19.578600000000005
O 299 0.5921999999999983 15.190700000000003 21.2321
O 299 0.5921999999999983 15.190700000000003 21.2321
O 307 20.873500000000003 17.9693 12.127199999999998
O 309 10.596100000000003 9.732949999999999 15.2135
O 313 20.158200000000004 15.702200000000001 10.954199999999997
O 314 4.2849 16.881399999999996 1.398699999999998
O 314 4.2849 16.881399999999996 1.398699999999998
O 321 19.774200000000004 19.221799999999998 1.680959999999999
O 321 19.774200000000004 19.221799999999998 1.680959999999999
O 321 19.774200000000004 19.221799999999998 1.680959999999999
O 322 17.6491 17.236900000000002 1.6314199999999985
O 322 17.6491 17.236900000000002 1.6314199999999985
O 333 7.69669 10.5729 17.6153
O 335 12.284900000000004 6.360589999999998 12.454800000000002
O 335 12.284900000000004 6.360589999999998 12.454800000000002
O 335 12.284900000000004 6.360589999999998 12.454800000000002
O 335 12.284900000000004 6.360589999999998 12.454800000000002
O 337 7.99221 7.860620000000001 19.0005
O 343 14.976600000000001 13.7863 12.1964
O 343 14.976600000000001 13.7863 12.1964
O 346 17.006200000000003 3.2475699999999996 11.071499999999997
O 348 11.2394 10.999999999999996 0.16190000000000282
O 350 15.019900000000003 19.4066 4.944219999999998
O 351 10.529500000000002 17.7664 4.612840000000002
O 351 10.529500000000002 17.7664 4.612840000000002
O 353 17.078799999999998 19.142099999999996 3.4603900000000003
O 363 14.683199999999996 14.306900000000002 18.8299
O 364 17.7801 19.7428 1.089500000000001
O 364 17.7801 19.7428 1.089500000000001
O 367 13.635200000000001 11.1354 0.6122000000000014
O 367 13.635200000000001 11.1354 0.6122000000000014
O 370 12.110400000000002 5.65615 9.93226
O 373 15.728599999999997 15.066199999999998 3.072849999999999
O 373 15.728599999999997 15.066199999999998 3.072849999999999
O 373 15.728599999999997 15.066199999999998 3.072849999999999
O 386 19.4382 14.135299999999997 0.5068000000000055
O 387 7.114740000000001 6.102 14.738499999999998
O 389 18.8997 17.9017 10.655200000000004
O 389 18.8997 17.9017 10.655200000000004
O 390 14.914799999999996 3.5637100000000004 8.272960000000001
O 394 15.756399999999996 9.73104 20.5442
O 394 15.756399999999996 9.73104 20.5442
O 396 10.398 5.947489999999998 11.438199999999998
O 396 10.398 5.947489999999998 11.438199999999998
O 396 10.398 5.947489999999998 11.438199999999998
O 398 18.221100000000003 0.8470000000000013 9.486180000000001
O 407 6.420269999999999 17.1437 0.06439999999999912
O 409 2.7656799999999997 18.562899999999996 2.572099999999999
O 412 14.4417 0.9998000000000005 11.8869
O 412 14.4417 0.9998000000000005 11.8869
O 418 13.096900000000002 10.990999999999996 14.266699999999997
O 423 9.555809999999997 5.19773 9.3415
O 427 20.479399999999995 1.219299999999997 3.877369999999999
O 427 20.479399999999995 1.219299999999997 3.877369999999999
O 432 12.206 13.180299999999999 21.378899999999998
O 435 8.872490000000003 1.4936000000000007 10.494299999999999
O 435 8.872490000000003 1.4936000000000007 10.494299999999999
O 436 0.5367000000000033 2.7458300000000015 7.70044
O 438 21.635100000000005 0.8535000000000039 0.7880000000000038
O 439 12.166700000000002 16.449300000000004 5.677109999999999
O 439 12.166700000000002 16.449300000000004 5.677109999999999
O 440 19.590299999999996 19.127 20.912199999999995
O 441 21.882100000000005 3.0233500000000006 5.275130000000001
O 441 21.882100000000005 3.0233500000000006 5.275130000000001
O 442 19.2625 17.920200000000005 3.5356699999999996
O 449 18.248100000000004 11.7212 14.8143
O 452 14.219899999999999 18.990400000000005 9.21923
O 453 11.993399999999998 19.580300000000005 9.70826
O 455 12.003600000000002 14.4804 3.972080000000002
O 456 8.902820000000002 10.163700000000002 0.9447000000000045
O 463 15.045199999999998 20.441799999999997 12.0262
O 464 14.486999999999998 20.2835 7.225449999999999
O 464 14.486999999999998 20.2835 7.225449999999999
O 469 9.975910000000002 6.660730000000001 19.4813
O 470 13.0155 1.9201200000000007 8.16291
O 471 16.3353 18.7152 7.204240000000002
O 475 8.34226 21.4864 13.646399999999996
O 476 13.977500000000003 15.657099999999996 1.4395000000000024
O 478 7.780989999999999 1.9421 12.530600000000003
O 490 8.823350000000001 4.704090000000001 12.935600000000004
O 490 8.823350000000001 4.704090000000001 12.935600000000004
O 491 8.328010000000003 6.022169999999999 17.2214
O 491 8.328010000000003 6.022169999999999 17.2214
O 493 16.4907 15.893600000000003 11.982699999999998
O 493 16.4907 15.893600000000003 11.982699999999998
O 496 12.732899999999997 13.455099999999998 1.7186899999999987
O 498 8.729690000000002 9.95505 19.847400000000004
O 498 8.729690000000002 9.95505 19.847400000000004
O 498 8.729690000000002 9.95505 19.847400000000004
O 499 18.3691 14.394000000000002 12.7103
O 499 18.3691 14.394000000000002 12.7103
O 505 21.3488 13.281900000000004 21.200299999999995
O 505 21.3488 13.281900000000004 21.200299999999995
O 507 6.136659999999999 17.597400000000004 2.65578
O 507 6.136659999999999 17.597400000000004 2.65578
O 520 1.1559000000000026 20.4023 1.129100000000001
O 528 21.332199999999997 21.060399999999998 2.888960000000001
O 528 21.332199999999997 21.060399999999998 2.888960000000001
O 529 9.821290000000001 5.2209 15.7666
O 529 9.821290000000001 5.2209 15.7666
O 529 9.821290000000001 5.2209 15.7666
O 530 15.922700000000003 13.036600000000004 17.0498
O 530 15.922700000000003 13.036600000000004 17.0498
O 535 7.159040000000001 8.589679999999998 21.846699999999995
O 539 13.980999999999998 8.997420000000002 13.117
O 539 13.980999999999998 8.997420000000002 13.117
O 543 11.5699 15.142700000000001 14.656099999999999
O 544 13.386700000000001 17.991700000000005 6.619319999999998
O 544 13.386700000000001 17.991700000000005 6.619319999999998
O 544 13.386700000000001 17.991700000000005 6.619319999999998
O 545 5.48799 15.639700000000001 19.6369
O 549 9.65278 3.4402599999999985 17.6219
O 553 9.429120000000001 14.7392 19.2625
O 557 20.3773 15.904599999999999 13.367900000000002
O 564 12.327000000000002 21.1016 7.89864
O 568 11.790400000000002 11.491600000000002 2.3953300000000013
O 570 14.009600000000002 15.5778 7.490500000000001
O 579 18.4151 14.9297 2.6414399999999993
O 585 9.545849999999998 13.224700000000002 21.313
O 586 15.857899999999997 1.5347000000000008 9.92801
O 586 15.857899999999997 1.5347000000000008 9.92801
O 586 15.857899999999997 1.5347000000000008 9.92801
O 587 14.859100000000002 9.354290000000002 15.370999999999999
O 588 16.733900000000002 14.857400000000002 1.0050000000000026
O 588 16.733900000000002 14.857400000000002 1.0050000000000026
O 596 2.7845699999999987 14.023099999999996 21.4014
O 596 2.7845699999999987 14.023099999999996 21.4014
O 601 1.1308000000000007 13.153200000000002 1.0343000000000018
O 607 7.447189999999999 21.596 11.398999999999997
O 612 10.558600000000002 21.463000000000005 1.4546000000000063
O 614 17.116399999999995 21.398300000000003 8.039660000000001
O 617 10.278499999999998 10.879099999999998 17.275699999999997
O 617 10.278499999999998 10.879099999999998 17.275699999999997
O 619 8.237280000000002 19.461300000000005 2.92887
O 619 8.237280000000002 19.461300000000005 2.92887
O 625 12.596 13.325799999999997 13.341800000000003
O 626 13.7092 12.111799999999999 19.523099999999996
O 627 17.864500000000003 14.281499999999998 15.2604
O 639 12.173100000000002 21.090500000000002 11.6283
O 639 12.173100000000002 21.090500000000002 11.6283
O 640 14.5042 13.926199999999998 0.07119999999999749
O 641 16.915000000000003 0.9908000000000001 12.309900000000003
O 644 15.4117 12.8884 2.2614599999999996
O 648 7.3683900000000015 14.098699999999997 21.1893
O 648 7.3683900000000015 14.098699999999997 21.1893
O 650 11.348000000000003 8.68358 12.8537
O 651 6.233550000000001 15.0093 2.1250800000000005
O 654 0.575800000000001 1.7027499999999982 3.052430000000001
O 654 0.575800000000001 1.7027499999999982 3.052430000000001
O 668 20.8635 20.677400000000002 0.4221999999999966
O 668 20.8635 20.677400000000002 0.4221999999999966
