12
Lattice="21.9108 0.0 0.0 0.0 21.9108 0.0 0.0 0.0 21.9108"
Si 721 7.34516 6.62434 3.54617
Si 824 9.731019999999997 6.778510000000001 4.04683
O 90 6.070689999999999 6.997890000000002 4.469999999999999
O 224 9.98057 7.496289999999998 5.6290900000000015
O 257 8.407720000000001 5.853899999999999 4.725709999999999
O 257 8.407720000000001 5.853899999999999 4.725709999999999
O 278 8.514399999999998 7.73987 3.410730000000001
O 278 8.514399999999998 7.73987 3.410730000000001
O 385 11.183600000000002 7.293589999999998 3.5456900000000005
O 515 6.2726700000000015 7.7562999999999995 2.2520999999999987
O 613 7.238659999999999 5.4280599999999986 2.50939
O 623 9.872679999999999 5.598880000000001 2.7740100000000005
