12
Lattice="23.9851 0.0 0.0 0.0 23.9851 0.0 0.0 0.0 23.9851"
Si 927 10.798400000000004 17.217000000000002 14.130300000000002
Si 944 10.9866 16.750599999999995 16.631400000000003
O 105 11.650299999999998 15.234600000000004 17.424700000000005
O 184 12.423800000000004 17.380799999999997 13.717699999999997
O 291 12.383399999999998 17.5594 16.783999999999995
O 309 10.055600000000002 16.272499999999997 12.999100000000002
O 333 10.191599999999998 17.7653 15.561200000000003
O 333 10.191599999999998 17.7653 15.561200000000003
O 482 10.349999999999998 18.6675 13.4376
O 498 9.860040000000001 16.783000000000005 17.7736
O 617 11.217400000000001 15.7863 15.296400000000002
O 617 11.217400000000001 15.7863 15.296400000000002
