273
Lattice="22.5427 0.0 0.0 0.0 22.5427 0.0 0.0 0.0 22.5427"
Si 672  18.86820 20.16070 7.65131
Si 673  20.04670 17.59110 7.03296
Si 674  19.05850 19.22860 4.86942
Si 675  21.28350 21.36130 4.27725
Si 676  18.29110 19.79520 2.02677
Si 677  16.26110 18.77330 -0.17600
Si 678  16.41850 22.07660 2.00733
Si 679  15.69430 24.56287 0.87700
Si 682  14.41750 19.85980 2.66983
Si 683  17.12110 23.54240 4.37085
Si 684  16.18120 26.02113 3.52454
Si 685  16.18660 22.17770 6.58286
Si 686  19.93630 24.23478 4.30865
Si 687  19.24210 25.15778 7.16238
Si 688  22.15960 24.61413 2.61146
Si 689  24.66383 23.54600 2.95670
Si 691  21.48990 22.61470 0.21580
Si 692  21.65730 27.25918 1.73272
Si 693  20.82780 27.09280 -1.02130
Si 694  24.28413 28.65525 1.15660
Si 695  26.34672 27.21842 0.06170
Si 697  24.57791 27.70948 4.03516
Si 698  26.52553 25.38983 4.65469
Si 700  22.83550 26.75172 5.94557
Si 701  25.65640 30.51663 3.62827
Si 702  27.98109 28.81787 2.31850
Si 703  25.71676 31.41502 6.34183
Si 705  23.13170 32.52392 6.22520
Si 706  26.66067 31.60264 9.08415
Si 708  24.13880 28.99123 7.74786
Si 709  22.79380 27.69999 9.67635
Si 710  25.22644 28.72058 10.65720
Si 711  27.09148 26.62543 12.02230
Si 712  24.08979 31.31108 11.57920
Si 713  21.29210 31.40949 10.50060
Si 715  20.14490 28.65475 9.53920
Si 716  20.31550 30.44253 12.99610
Si 717  22.12750 33.53380 8.82939
Si 718  21.10750 36.10140 8.58989
Si 719  19.23300 35.19480 10.92680
Si 720  22.84250 37.35040 10.83550
Si 723  19.02210 35.11940 6.96650
Si 724  19.11060 32.32093 6.04171
Si 725  17.12670 34.25730 9.38334
Si 726  16.88800 36.45600 5.36806
Si 727  17.05980 39.26590 6.72917
Si 728  14.49200 36.65720 7.12527
Si 729  12.98170 38.90920 5.54145
Si 730  15.42360 40.08950 4.27319
Si 731  10.39540 38.21880 4.58308
Si 732  9.63379 35.88120 2.89381
Si 733  9.80460 41.09930 3.42859
Si 734  7.35130 41.13030 1.86007
Si 735  7.42085 42.12560 4.59531
Si 737  11.64400 41.88720 1.63204
Si 738  12.43790 39.10130 1.15270
Si 739  10.92310 44.40910 1.66702
Si 740  13.73760 42.56970 -0.10210
Si 742  11.63130 41.81000 -2.25690
Si 743  9.64254 39.35400 -1.55340
Si 744  13.75280 40.51200 -3.78140
Si 745  10.10770 44.52710 -2.65310
Si 746  8.11632 42.84710 -3.55750
Si 747  12.40380 45.36280 -4.46000
Si 748  11.25870 46.57856 -0.43550
Si 749  10.35250 48.48010 -2.25590
Si 750  11.16830 51.51147 -2.38300
Si 751  7.43016 47.86787 -1.88520
Si 753  6.31470 46.77573 -4.45010
Si 755  7.99632 47.98191 0.94530
Si 756  7.12805 50.96002 -1.35470
Si 757  8.88263 53.18980 -1.09900
Si 758  4.66925 50.53748 -2.50700
Si 759  7.96481 51.34213 -4.35750
Si 760  10.63260 52.41384 -5.19360
Si 761  5.63481 51.47168 -6.27440
Si 762  8.49782 48.54672 -5.93090
Si 763  8.62266 49.60724 -8.77360
Si 764  11.20220 46.87440 -6.42460
Si 767  13.19990 48.42763 -7.73790
Si 768  9.52098 44.91850 -7.59480
Si 769  6.82311 44.80450 -6.32950
Si 770  9.10369 46.95380 -9.94290
Si 771  7.92160 45.35600 -12.31980
Si 773  11.43170 45.77990 -11.08400
Si 774  11.33930 44.50780 -13.95970
Si 775  13.71630 47.12727 -12.23200
Si 776  11.29250 48.80763 -13.48121
Si 777  14.52100 47.15457 -14.95020
Si 779  15.13610 48.65900 -9.92350
Si 780  15.58950 51.02014 -8.31740
Si 782  16.85890 46.61356 -9.25410
Si 783  14.86430 44.46090 -8.99740
Si 784  18.23400 45.49930 -6.83810
Si 785  18.11920 45.17080 -11.63790
Si 786  19.37470 42.65850 -10.26350
Si 787  17.10310 40.83500 -11.28910
Si 789  21.95550 41.46440 -11.50170
Si 790  18.41030 42.61500 -7.22530
Si 791  21.26860 42.77440 -7.04520
Si 792  21.93810 40.26420 -9.07720
Si 793  21.07330 45.67720 -8.28040
Si 794  21.47610 47.50528 -10.72730
Si 795  20.47510 48.38077 -7.05770
Si 797  21.61860 50.21235 -9.04650
Si 798  19.01310 47.48743 -4.74390
Si 800  18.06020 49.75906 -7.87770
Si 801  17.66200 51.80259 -9.91400
Si 803  18.31890 51.56630 -5.40520
Si 804  16.96260 49.31189 -4.15320
Si 805  21.19250 52.09049 -4.57830
Si 806  16.90450 53.99268 -6.04120
Si 807  18.81510 55.33340 -7.81250
Si 808  16.57620 54.90671 -3.22560
Si 809  14.12720 53.43770 -6.92230
Si 810  13.19880 51.74162 -4.48130
Si 811  14.12670 53.66714 -2.55990
Si 812  14.15900 48.90899 -4.86680
Si 813  11.91490 55.64180 -2.60440
Si 814  14.31850 54.05034 0.42420
Si 815  12.27810 56.33000 0.93370
Si 816  16.25130 56.31200 1.25617
Si 817  14.10660 58.57780 1.42534
Si 818  18.51000 57.91070 1.07100
Si 819  16.89110 55.18080 4.15086
Si 821  15.63810 52.52086 4.67042
Si 822  14.42650 52.47601 7.06822
Si 823  17.87570 50.91900 4.85872
Si 825  12.26930 54.48742 7.78895
Si 826  15.05500 50.06999 8.44550
Si 829  17.00130 53.91144 8.28436
Si 830  17.33910 51.54000 9.88498
Si 832  13.41130 51.79052 10.53610
Si 833  10.50550 51.50113 10.31500
Si 834  14.80070 54.35588 11.33980
Si 835  17.35950 55.81620 11.96330
Si 836  12.73810 56.29220 10.32070
Si 837  9.83038 56.74340 10.38010
Si 838  10.37850 57.77030 7.44166
Si 839  8.78725 53.77882 10.35870
Si 840  6.31324 52.31418 9.86206
Si 842  8.57812 54.42256 13.37720
Si 843  10.13580 56.88480 14.57870
Si 844  5.52340 54.08992 13.30230
Si 847  6.36388 51.30483 13.38240
Si 848  10.63850 55.44640 17.33740
Si 849  7.77544 58.25500 16.04460
Si 850  12.88740 58.03810 14.32520
Si 851  15.14550 57.73680 13.12650
Si 852  11.55660 59.49950 16.53230
Si 853  10.20920 59.51360 19.16230
Si 854  9.83253 60.73880 14.25760
Si 856  13.63930 61.54960 16.18280
Si 857  16.01950 59.99950 14.80880
Si 858  11.56790 63.18510 14.63930
Si 859  9.62149 63.54810 17.02120
Si 860  8.04291 61.09520 16.59850
Si 861  6.99182 64.32470 15.40770
Si 863  7.57768 64.74280 12.49090
Si 864  8.38107 62.92190 10.54300
Si 865  5.97636 67.09080 11.92730
Si 866  3.89009 64.67280 12.05570
Si 867  4.89909 68.37150 14.37050
Si 870  2.72749 70.61771 14.58230
Si 871  3.30960 66.31850 16.09980
Si 873  1.92762 68.95418 17.16570
Si 875  -0.16070 67.93730 18.68660
Si 876  2.54607 68.42340 19.95310
Si 877  1.64453 71.61896 16.95760
Si 878  1.79014 73.41569 14.71500
Si 879  -0.13880 72.08420 19.13770
Si 880  4.65502 71.69804 17.49270
Si 881  1.97554 74.45220 19.47250
Si 882  3.17489 75.72772 17.25140
Si 883  2.38235 76.61592 21.31850
Si 884  1.39977 78.79660 19.27680
Si 885  5.00631 77.43983 22.44050
Si 886  6.84527 79.63400 22.45150
Si 887  6.81914 76.49939 24.77324
Si 888  3.29294 79.13830 24.63690
Si 890  0.92850 80.27680 25.10418
Si 893  5.34906 78.53420 26.71058
Si 894  4.00459 81.82550 22.84850
Si 895  4.57223 81.92300 19.88270
Si 896  1.45987 83.18210 23.95348
Si 898  6.05504 83.46340 24.61793
Si 899  4.23382 83.61400 26.96972
Si 900  7.04209 80.63190 25.37391
Si 901  5.34409 81.07030 27.74411
Si 902  7.77575 81.05630 29.46991
Si 903  8.24616 83.82070 30.71035
Si 904  6.62685 84.90000 28.21676
Si 906  0.36300 85.43290 22.28300
Si 907  3.17898 86.50090 22.79280
Si 908  0.72990 83.81950 19.58640
Si 909  0.15560 81.04440 20.72030
Si 910  -2.02600 84.87270 18.73340
Si 911  -4.83540 84.36800 18.02230
Si 912  -3.10440 84.05280 21.58320
Si 913  -1.73140 81.95830 22.72500
Si 914  -5.86810 83.00890 20.47400
Si 915  -8.74310 83.41700 20.97520
Si 916  -5.39580 80.33600 19.44200
Si 917  -4.68660 80.46810 16.46950
Si 918  -2.42210 79.93350 19.70930
Si 919  -2.31580 77.68420 22.00200
Si 920  -1.21500 78.65320 17.49660
Si 921  -1.08700 76.29749 15.77960
Si 922  0.34390 81.18920 16.27350
Si 923  -2.19720 81.97470 15.43550
Si 924  1.01090 80.56540 13.29000
Si 925  -1.61090 79.45360 13.50320
Si 926  -4.37930 75.70775 21.25660
Si 928  -1.97750 79.07790 24.88190
Si 929  -1.40210 75.13394 20.78870
Si 931  -1.43220 76.44070 25.11746
Si 932  -1.18760 75.42762 27.82556
Si 933  -5.28370 73.50635 23.29990
Si 934  -2.53450 83.40270 25.44976
Si 935  -0.37460 83.12470 27.37129
Si 936  0.92480 80.49520 28.02518
Si 937  0.37650 84.79660 29.47362
Si 938  2.30022 83.35330 31.48664
Si 939  0.60710 88.03610 29.17266
Si 941  0.03970 88.99460 32.04587
Si 942  3.46472 88.39690 29.87552
Si 943  4.00232 85.99990 31.63535
Si 945  2.56726 89.54430 33.89770
Si 946  -5.90640 86.70520 19.48670
Si 950  -6.62110 89.51890 19.00250
Si 951  -8.05800 89.30120 16.47930
Si 954  4.32969 84.98460 20.72900
Si 956  2.70255 86.98080 25.56635
Si 957  4.49039 88.65770 20.74280
Si 958  5.58683 89.82660 23.26970
Si 959  4.18241 89.07610 26.00154
Si 961  8.26483 90.71690 24.75363
Si 962  3.09795 91.95852 22.81050
Si 964  6.75880 90.20100 27.40185
Si 965  0.19060 88.01580 24.29793
Si 967  7.20212 86.21260 21.38980
Si 969  7.26754 81.00300 19.97040
Si 971  7.71381 78.48450 18.19130
Si 972  4.90173 77.84960 18.05060
Si 973  6.75369 77.19565 29.11514
Si 974  6.32063 74.28175 29.29582
Si 975  9.69521 76.46504 28.88901
Si 977  8.99390 73.31834 28.68209
Si 978  11.66930 76.25171 26.53671
Si 979  9.60507 76.15212 24.32216
Si 980  9.65150 78.13890 22.11330
Si 981  8.64849 71.05459 30.75988
Si 982  6.44174 71.98873 32.59760
Si 983  4.54581 72.20943 30.04322
Si 984  2.45154 70.12799 29.51799
Si 985  3.45247 62.53400 13.98280
Si 986  4.45460 60.50610 12.11630
Si 987  1.00570 61.77330 15.45800
Si 989  5.49106 58.12060 13.87510
Si 990  9.24507 60.27560 11.53800
Si 992  8.86791 65.30420 8.86708
Si 993  11.90290 60.66580 10.31260
Si 994  13.32350 62.98580 10.41180
Si 995  13.62960 65.15720 8.29875
Si 997  13.84360 65.89170 5.48083
Si 998  12.21320 67.79360 4.04678
Si 999  10.44850 68.56590 6.10515
Si 1000 13.34630 70.22251 2.65992
Si 1002 12.07130 71.13665 6.22040
Si 1003 11.38080 50.76289 -7.77830
Si 1004 13.59530 50.30740 -0.97140
Si 1005 10.34220 37.18340 0.56150
Si 1006 19.15010 21.50890 -1.07650
