9
Lattice="24.616 0.0 0.0 0.0 24.616 0.0 0.0 0.0 24.616"
O 65  16.07440 19.00650 12.81940
O 105 15.12650 21.12840 12.93210
O 121 16.48040 17.92670 14.87640
O 184 14.99380 19.14870 10.49620
O 291 16.48980 16.46780 12.51450
O 309 17.12060 20.58250 14.59110
O 333 17.22280 20.62270 11.06920
O 498 18.59920 18.11600 13.14480
O 617 14.43800 19.77460 15.05170
