22
Lattice="24.616 0.0 0.0 0.0 24.616 0.0 0.0 0.0 24.616"
O 38  20.87750 20.38790 20.49480
O 70  22.48610 21.32390 22.18810
O 132 18.88820 18.79060 20.92830
O 182 18.91180 20.83860 18.80590
O 217 21.32370 20.64210 17.87090
O 234 22.88680 21.97800 19.67040
O 319 18.91890 20.91350 22.30720
O 367 20.37330 18.42000 18.67840
O 406 20.95980 23.15680 20.80900
O 644 20.65100 19.08030 22.99100
O 65  15.83750 18.18810 15.04140
O 105 15.53770 19.07090 12.95460
O 121 16.39030 16.56210 16.71360
O 150 14.00260 19.83320 15.31530
O 184 13.80350 17.21900 16.28010
O 291 15.76210 16.52660 13.00510
O 309 16.66810 20.68440 14.90100
O 333 17.98660 18.25940 13.36910
O 337 15.36610 18.81800 17.78320
O 469 14.87360 21.06900 13.27350
O 498 16.69170 20.53770 11.26390
O 617 14.46290 19.18580 10.81210
