19
Lattice="24.616 0.0 0.0 0.0 24.616 0.0 0.0 0.0 24.616"
O 38  21.01470 20.32620 20.44490
O 70  19.06110 18.72180 20.97080
O 132 22.58580 21.38270 22.21960
O 182 18.99590 21.03730 21.91500
O 217 21.65260 20.47920 17.87850
O 234 19.13860 20.65030 18.56320
O 319 21.10300 23.00340 20.74500
O 367 20.57130 18.35920 18.55670
O 406 23.24350 21.84580 19.69060
O 644 20.60720 19.29560 23.01830
O 65  15.61680 19.04190 13.02590
O 105 14.68440 21.15330 12.92990
O 121 16.24200 17.93290 15.10550
O 184 14.55800 19.07970 10.71220
O 291 16.70240 20.74200 14.59360
O 309 15.94660 16.50830 12.94120
O 333 16.74870 20.52500 11.20390
O 498 18.15340 18.13460 13.31040
O 617 14.15120 19.87540 15.21220
