336
Lattice="24.616 0.0 0.0 0.0 24.616 0.0 0.0 0.0 24.616"
Si 672  8.11029 6.42483 21.71670
Si 673  9.78385 8.06497 19.84950
Si 674  10.54900 4.76521 22.53740
Si 675  6.27602 3.84401 21.33580
Si 676  7.59324 7.81772 24.55570
Si 677  6.25273 10.21200 23.52330
Si 678  10.05750 7.27582 26.40813
Si 679  6.35915 6.09788 26.89595
Si 680  4.55891 3.63595 27.31807
Si 681  4.71280 8.26300 28.36856
Si 682  8.36077 4.68314 28.89506
Si 683  6.91062 2.11411 28.51653
Si 684  11.18080 4.33845 29.79140
Si 685  6.89089 5.43567 31.72266
Si 686  8.12918 6.65483 34.23218
Si 687  5.87108 2.71046 32.94410
Si 688  5.04570 8.03588 31.38402
Si 689  2.52302 6.98101 30.08133
Si 690  6.24851 9.13624 34.03143
Si 691  6.72142 12.16000 33.62677
Si 692  4.34455 8.24910 36.46100
Si 693  6.21477 5.83234 36.74090
Si 694  1.41476 9.23147 36.13880
Si 695  5.83128 10.02550 38.59130
Si 696  4.79001 11.18720 41.06890
Si 697  8.74835 10.24230 39.19400
Si 698  4.61522 12.73410 37.52510
Si 699  2.56784 12.53880 39.78930
Si 700  5.74759 15.64710 37.41180
Si 701  4.03818 13.16010 34.33306
Si 702  4.05584 16.12930 34.82340
Si 703  1.19829 11.88480 34.42952
Si 704  0.62108 12.20750 31.51393
Si 705  -0.85490 14.03120 35.30830
Si 706  -3.33200 14.09810 33.60633
Si 707  1.03911 16.47000 35.98740
Si 708  -2.77020 13.28430 37.75840
Si 709  -5.12510 14.99350 38.13880
Si 710  -0.39980 13.40490 39.62020
Si 711  -4.64040 10.80980 36.89690
Si 712  -5.29850 9.04669 34.76960
Si 713  -7.47320 10.04550 36.60890
Si 714  -3.27330 8.25625 38.28070
Si 715  -4.31510 6.46990 36.19110
Si 716  -0.10050 8.60467 38.55640
Si 717  -5.06050 8.20903 40.96680
Si 718  -2.68060 7.46597 42.41800
Si 719  -6.79590 10.40420 42.20690
Si 720  -7.38690 6.42029 39.67610
Si 721  -6.69000 4.76772 37.16480
Si 722  -9.41840 8.04344 37.99000
Si 723  -7.93250 4.94359 42.46770
Si 724  -8.15400 2.10487 43.70480
Si 725  -10.45380 6.91739 42.78010
Si 726  -4.91220 4.67792 43.82570
Si 727  -3.34360 6.84041 45.28820
Si 728  -4.34300 2.56637 46.06640
Si 729  -2.58270 4.66012 41.46940
Si 730  -1.52950 1.92791 40.86220
Si 731  -2.18640 3.73532 38.57980
Si 732  -3.21170 3.77542 35.69620
Si 733  0.41477 5.54666 38.42070
Si 734  1.80614 4.26105 40.86900
Si 735  1.99245 4.72440 35.86370
Si 736  1.15804 2.27562 34.20979
Si 737  4.79911 3.36964 35.98370
Si 738  0.44552 7.00850 34.27077
Si 739  -0.01910 7.51786 31.43505
Si 740  -1.89790 5.83992 32.91329
Si 741  -1.47240 2.97605 33.57030
Si 742  -4.75090 7.36197 32.53078
Si 743  -7.43220 6.24499 32.51940
Si 744  -5.69900 5.94960 30.12759
Si 745  -6.80090 5.89684 27.18261
Si 746  -4.55320 3.00577 30.42167
Si 747  -6.97590 1.56529 29.03383
Si 748  -2.74450 1.42929 28.36373
Si 749  -5.00190 2.39218 33.50474
Si 750  -5.37910 0.14670 35.45350
Si 751  -8.02440 3.32857 33.28862
Si 752  -9.40220 4.17062 35.63000
Si 753  -9.28720 2.83210 30.38151
Si 754  -11.56000 0.69646 30.45334
Si 755  -10.71240 5.68472 30.40764
Si 756  -10.02180 7.67683 32.71266
Si 757  -9.28290 7.29395 28.13502
Si 758  -8.22660 9.70072 29.35033
Si 759  -10.33290 9.42173 26.18967
Si 760  -12.18870 7.87442 24.52370
Si 761  -8.27380 11.23220 25.03134
Si 762  -12.88660 11.09970 26.81240
Si 763  -13.61240 11.95400 24.00010
Si 764  -13.50540 14.03520 27.77667
Si 765  -14.97244 9.46409 28.58174
Si 766  -17.12485 11.63220 28.23453
Si 767  -13.79060 10.46280 31.27592
Si 768  -10.73440 10.24190 31.00314
Si 769  -14.05060 13.59440 30.85437
Si 770  -13.77110 10.39060 34.44633
Si 771  -12.21450 12.47980 35.93390
Si 772  -14.98259 11.86920 36.76480
Si 773  -14.03350 7.54904 35.88290
Si 774  -15.79018 6.49212 38.24560
Si 775  -11.01100 6.77763 35.52460
Si 776  -15.95485 6.06047 41.41320
Si 777  -14.45170 3.69923 37.24340
Si 778  -13.93760 1.94076 34.94610
Si 779  -11.75100 2.62444 36.74300
Si 780  -15.26909 1.47840 39.43530
Si 781  -12.99770 -0.36450 40.15780
Si 782  -17.19337 3.23227 41.03710
Si 783  -17.28677 -0.61070 38.17730
Si 784  -17.22733 -2.59860 40.36900
Si 785  -20.00924 0.43125 36.96410
Si 786  -15.47708 -0.82080 35.54400
Si 787  -17.30180 -2.44940 33.80852
Si 788  -13.92610 -3.65450 35.42120
Si 789  -11.33920 -2.11280 35.24370
Si 790  -14.11280 -5.12130 32.61731
Si 791  -15.59007 -5.67120 37.24520
Si 792  -17.95931 -4.99090 35.57250
Si 793  -14.54630 -6.96360 39.86730
Si 794  -14.86159 -8.26650 35.38470
Si 795  -16.68559 -10.56990 35.90860
Si 796  -11.87860 -9.10100 35.04200
Si 797  -16.72972 -6.82720 33.30962
Si 798  -19.48159 -7.26560 32.16481
Si 799  -19.63222 -9.63310 30.21778
Si 800  -20.71863 -5.03290 30.02523
Si 801  -22.89728 -3.11630 30.81967
Si 802  -22.70256 -5.72600 27.69113
Si 803  -18.49318 -3.20260 28.61592
Si 804  -17.05755 -5.57720 27.05005
Si 805  -20.35932 -1.03660 27.20798
Si 806  -16.66038 -2.07170 31.04460
Si 807  -16.92667 1.02132 31.35150
Si 808  -13.91730 -3.24300 30.04531
Si 809  -11.31810 -1.76510 28.80045
Si 810  -14.20020 -4.99790 27.29369
Si 811  -11.31900 -6.15450 26.85643
Si 812  -13.66020 -2.71540 25.09767
Si 813  -11.46590 -4.49660 24.09040
Si 814  -13.82860 0.15640 25.98240
Si 815  -15.53908 -3.11080 22.67970
Si 816  -14.34260 -3.77730 19.87480
Si 817  -17.26939 -0.77110 21.38200
Si 818  -17.45474 -5.41470 23.84530
Si 819  -19.92248 -5.19900 22.04840
Si 820  -15.80655 -7.70300 22.54550
Si 821  -12.88180 -6.78070 22.56060
Si 822  -15.91476 -10.63380 23.44780
Si 823  -15.78303 -8.37630 19.40560
Si 824  -15.81657 -11.48840 19.03970
Si 825  -17.76833 -6.46460 17.81990
Si 826  -12.71570 -7.36220 19.36770
Si 827  -10.62890 -9.53830 19.83370
Si 828  -11.55260 -4.55500 18.69690
Si 829  -8.57480 -5.02760 18.97070
Si 830  -11.47880 -3.70170 15.56940
Si 831  -14.23310 -3.18140 15.79640
Si 832  -9.12750 -4.57900 14.04870
Si 833  -10.25580 -0.96890 16.44370
Si 834  -9.91540 -0.45760 19.35090
Si 835  -8.29120 -0.20740 14.30910
Si 836  -5.98880 1.75126 13.50480
Si 837  -6.64540 -2.90270 14.76920
Si 838  -11.27340 -0.30370 13.09350
Si 839  -3.78220 -2.22210 14.33640
Si 840  -6.30210 -3.06450 17.99100
Si 841  -3.70280 -4.80550 18.78930
Si 842  -5.70210 0.10110 18.31960
Si 843  -4.28370 0.71017 15.67240
Si 844  -3.16020 0.00990 20.27080
Si 845  -0.30390 0.59180 21.04450
Si 846  -2.49310 -3.06540 20.69730
Si 847  -4.25000 -5.05210 21.65090
Si 848  -0.81980 -3.65210 23.19880
Si 849  0.01960 -3.49350 18.67960
Si 850  -1.85180 -3.70590 16.35930
Si 851  1.75867 -5.95690 18.97210
Si 852  1.97695 -1.65650 20.42200
Si 853  3.66266 -0.17650 18.23900
Si 854  2.17156 -3.60660 22.88070
Si 855  2.02570 -2.96560 26.10022
Si 856  -0.77750 -1.61560 25.46338
Si 857  -1.07930 1.09305 24.11070
Si 858  -3.54230 -2.76610 26.41429
Si 859  -5.58030 -1.11190 25.30779
Si 860  -3.21170 -3.99160 29.24318
Si 861  -2.98040 -5.20210 24.52050
Si 862  -3.62800 -7.52790 26.61478
Si 863  -2.03810 -10.25430 26.83970
Si 864  -6.40610 -8.88460 25.66018
Si 865  -4.51360 -6.58780 29.61354
Si 866  -7.34880 -7.72610 30.35139
Si 867  -2.64600 -8.20690 31.77902
Si 868  0.01670 -6.86580 32.28070
Si 869  0.03450 -9.38850 31.01300
Si 870  0.85584 -10.20260 28.14482
Si 871  2.77706 -11.93970 29.59245
Si 872  1.85419 -8.26740 25.88030
Si 873  0.04160 -8.96580 23.53880
Si 874  4.69211 -9.17200 24.78190
Si 875  4.22399 -12.13950 24.78980
Si 876  4.51702 -8.30980 21.85500
Si 877  6.29680 -8.39020 27.49643
Si 878  8.40076 -10.46360 26.45790
Si 879  4.69415 -10.78850 19.91900
Si 880  1.41813 -8.27130 21.14620
Si 881  1.74813 -10.64340 19.35180
Si 882  3.68323 -9.80620 17.23680
Si 883  -0.74750 -11.87560 17.75230
Si 884  -3.07900 -10.39670 19.25130
Si 885  -0.60240 -14.97106 16.91690
Si 886  1.34218 -15.94423 19.27970
Si 887  1.35065 -14.80270 22.12030
Si 888  4.38978 -15.12266 18.79970
Si 889  1.75932 -19.12771 19.15760
Si 890  4.54852 -18.64246 20.28940
Si 891  0.76487 -21.14168 21.40630
Si 892  1.37645 -21.64508 24.29830
Si 893  -1.99560 -19.93870 22.43780
Si 894  -2.38820 -19.34282 25.59073
Si 895  -5.12690 -20.48662 25.51865
Si 896  -2.75810 -16.36891 25.36505
Si 897  0.62800 -19.05602 26.15349
Si 898  1.82037 -20.30148 28.80908
Si 899  0.39531 -16.23443 24.73260
Si 900  -0.11210 -13.53960 25.75793
Si 901  -2.34090 -12.23210 24.37190
Si 902  1.38928 -11.90780 23.78340
Si 903  -2.21270 -14.33520 27.74883
Si 904  -1.54820 -14.50040 30.63462
Si 905  -4.11690 -11.95030 28.47509
Si 906  -3.91870 -12.66710 31.42883
Si 907  -7.20830 -12.33130 27.70678
Si 908  -8.24160 -9.59480 28.31907
Si 909  -10.90980 -9.20100 27.20447
Si 910  -10.69690 -11.18200 24.77520
Si 911  -10.74370 -8.92000 22.78200
Si 912  -7.98030 -8.00610 23.03590
Si 913  -6.60920 -6.70430 20.80350
Si 914  -7.59700 -9.40520 20.48460
Si 915  -6.00110 -11.33120 18.60330
Si 916  -6.29230 -9.01640 16.48170
Si 917  -8.76680 -7.10300 16.52100
Si 918  -3.61630 -7.72110 17.52670
Si 919  -2.27490 -6.50970 14.99270
Si 920  -4.66710 -6.61410 13.00460
Si 921  0.30933 -8.21610 14.28380
Si 922  2.24478 -6.27510 15.75980
Si 923  2.56212 -3.56800 14.44700
Si 924  5.10424 -7.44560 15.52890
Si 925  1.85532 -0.72650 13.62440
Si 926  4.64490 -2.85000 16.80750
Si 927  3.59323 -4.12950 11.40820
Si 928  4.43365 -1.39040 9.77653
Si 929  0.75619 -5.31350 10.20560
Si 930  -1.95550 -3.98880 9.54673
Si 931  -0.01290 -2.03430 8.48790
Si 932  -4.53940 -5.65800 9.93634
Si 933  -2.87430 -1.64140 11.43250
Si 934  0.03400 -0.42490 11.03620
Si 935  -6.87810 -3.80150 9.55826
Si 936  -6.73530 -7.86070 8.88885
Si 937  -9.01170 -5.82810 9.10832
Si 938  -5.81070 -10.46490 10.61960
Si 939  -7.93870 -12.68750 9.81048
Si 940  -7.04780 -13.47540 7.13718
Si 941  -9.41130 -11.68740 7.46664
Si 942  -11.47880 -9.38000 7.32759
Si 943  -11.35500 -6.35660 7.11017
Si 944  -9.58500 -5.64980 4.83229
Si 945  -8.97190 -2.89250 5.91381
Si 946  -10.43030 -1.32670 8.04511
Si 947  -6.61720 -0.78520 6.28420
Si 948  -7.53730 -0.78140 9.06285
Si 949  -3.51760 -1.01870 5.54210
Si 950  -1.45470 0.44124 7.18364
Si 951  0.10040 1.66393 4.60550
Si 952  2.50386 -0.25290 4.98110
Si 953  3.34930 0.90186 7.81803
Si 954  -9.18470 -3.90320 11.45270
Si 955  4.64309 -4.88070 19.27910
Si 956  1.38744 1.05395 16.29700
Si 957  -7.81760 -6.80700 13.53540
Si 958  -9.82280 -8.73770 12.76760
Si 959  -11.53000 -7.89480 15.29700
Si 960  -10.25760 -11.87070 13.51310
Si 961  -9.27220 -13.19690 16.02530
Si 962  -12.57700 -10.83380 15.50680
Si 963  -15.24446 -9.85640 15.45230
Si 964  -13.09660 -12.59730 18.07520
Si 965  -10.34090 -12.44380 18.59110
Si 966  -14.09360 -15.31273 16.93230
Si 967  -11.06570 -15.81998 15.87010
Si 968  -8.17850 -14.33320 20.09840
Si 969  -10.42970 -16.13863 20.89410
Si 970  -6.46230 -13.43210 22.44190
Si 971  -4.94500 -11.20110 23.91440
Si 972  -4.76590 -16.00376 22.93520
Si 973  -6.52770 -18.15632 24.31560
Si 974  -8.81520 -20.15149 23.69640
Si 975  -10.03400 -22.06693 25.49083
Si 976  -11.12150 -18.69310 22.63010
Si 977  -7.43810 -22.55319 22.17340
Si 978  -8.19690 -25.54150 21.92640
Si 979  -6.19340 -27.51380 22.75710
Si 980  -8.89110 -27.71120 23.83870
Si 981  -10.01040 -26.28690 26.23251
Si 982  -7.99610 -24.20945 26.41390
Si 983  -11.50420 -24.20637 24.03650
Si 984  -12.28910 -24.32572 21.02770
Si 985  -15.00461 -24.02918 20.04110
Si 986  -13.54320 -21.66163 20.25900
Si 987  -13.30560 -18.85483 18.73130
Si 988  -16.35211 -26.18410 18.58200
Si 989  -12.67380 -22.04983 27.28564
Si 990  -14.88567 -20.47839 25.54670
Si 991  -16.71511 -22.95648 25.69858
Si 992  -18.60477 -23.30308 23.17180
Si 993  -20.78062 -23.22624 25.23135
Si 994  -2.44520 -10.30050 22.45540
Si 995  -13.14930 -15.07022 22.05110
Si 996  -17.20300 -11.82920 16.15330
Si 997  -3.86050 -23.09663 25.37452
Si 998  6.03024 -17.71880 17.88600
Si 999  4.30943 -15.74578 21.66640
Si 1000 4.84249 -20.17379 16.44990
Si 1001 5.71449 -22.23555 18.57750
Si 1002 6.97336 -12.34020 21.35770
Si 1003 4.42263 -13.56840 27.58215
Si 1004 -0.27760 -5.15670 29.60359
Si 1005 -15.17549 -5.31370 17.75880
Si 1006 -14.05070 2.09118 31.78668
Si 1007 -16.87771 -11.25950 30.96947
