6
Lattice="22.0027 0.0 0.0 0.0 22.0027 0.0 0.0 0.0 22.0027"
Si 834 1.3277 20.27 8.24202
O 62 2.99043 20.724099999999996 8.128040000000002
O 197 0.7128999999999976 21.4329 7.201080000000001
O 243 0.7971000000000004 21.097399999999997 9.607600000000001
O 248 1.5442199999999993 18.770500000000002 9.22663
O 437 1.5336700000000008 19.1867 6.833310000000001
