6
Lattice="22.0027 0.0 0.0 0.0 22.0027 0.0 0.0 0.0 22.0027"
Si 809 9.86291 18.895299999999995 16.5448
O 178 11.183499999999999 18.756800000000002 15.2683
O 244 10.3051 17.415499999999998 17.1091
O 252 10.385200000000001 20.4639 16.807
O 554 8.51962 18.834300000000002 17.624
O 567 8.665189999999999 19.127799999999997 15.3967
