6
Lattice="22.0027 0.0 0.0 0.0 22.0027 0.0 0.0 0.0 22.0027"
Si 992 9.25612 0.4046999999999983 14.143599999999996
O 6 7.765879999999999 1.155700000000003 13.364900000000002
O 50 9.89517 1.7153899999999993 13.188199999999998
O 87 8.718990000000002 0.6561000000000021 15.584599999999998
O 277 10.881600000000002 21.8389 14.564499999999999
O 639 9.03437 21.073799999999995 13.3126
