6
Lattice="22.0027 0.0 0.0 0.0 22.0027 0.0 0.0 0.0 22.0027"
Si 857 16.910500000000003 1.2222000000000008 16.646599999999996
O 53 17.6664 2.7142799999999987 16.2615
O 99 16.115200000000005 0.8231000000000037 15.397700000000004
O 216 16.2253 21.2931 17.329799999999995
O 259 16.2452 1.9786000000000001 18.0119
O 595 18.335200000000004 0.4391000000000034 16.8822
