6
Lattice="22.0027 0.0 0.0 0.0 22.0027 0.0 0.0 0.0 22.0027"
Si 693 3.8863899999999987 2.0474500000000013 14.952699999999997
O 196 4.464760000000002 0.6433999999999997 15.674600000000002
O 239 2.7393 1.4465999999999966 13.934500000000003
O 304 4.017389999999999 3.6730300000000007 14.810199999999998
O 458 2.89198 2.394569999999998 16.297
O 478 5.255939999999999 1.8235099999999989 13.795199999999998
