18
Lattice="22.0027 0.0 0.0 0.0 22.0027 0.0 0.0 0.0 22.0027"
Si 702 15.5885 3.4614399999999996 12.850799999999996
Si 811 16.5048 6.671870000000002 12.495300000000004
Si 974 15.3398 6.254660000000001 10.185100000000002
O 16 15.640599999999996 6.852409999999999 8.74953
O 40 14.892300000000002 6.90757 11.721
O 40 14.892300000000002 6.90757 11.721
O 73 16.196100000000005 3.3718700000000013 14.354699999999998
O 269 16.111300000000004 7.886189999999999 13.4969
O 325 16.654699999999995 2.8581600000000016 11.656200000000002
O 341 16.2249 5.09207 12.675999999999998
O 341 16.2249 5.09207 12.675999999999998
O 346 14.220699999999997 3.8224300000000007 12.015800000000002
O 401 16.9288 6.777200000000001 10.902400000000004
O 401 16.9288 6.777200000000001 10.902400000000004
O 560 13.5318 6.01295 10.083000000000002
O 576 18.1296 6.60821 12.8368
O 604 15.877500000000001 4.744029999999999 10.006899999999998
O 641 14.602799999999998 1.9997299999999996 13.183899999999998
