6
Lattice="22.0027 0.0 0.0 0.0 22.0027 0.0 0.0 0.0 22.0027"
Si 887 20.2214 0.5527999999999977 10.944399999999998
O 4 18.602 1.0816000000000017 11.073200000000003
O 36 20.5887 1.2560000000000002 12.444500000000001
O 157 21.5271 1.5090199999999996 10.142199999999999
O 383 20.7073 21.0789 11.499199999999998
O 448 19.821500000000004 21.9706 9.412679999999998
