6
Lattice="22.0027 0.0 0.0 0.0 22.0027 0.0 0.0 0.0 22.0027"
Si 887 20.2582 0.6125000000000043 10.887600000000003
O 4 18.668399999999995 1.1233000000000004 10.937299999999997
O 36 20.5198 1.330999999999996 12.360800000000001
O 157 21.633799999999997 1.5467399999999998 10.207699999999999
O 383 20.833100000000005 21.192200000000003 11.4851
O 448 19.9477 0.07099999999999795 9.295289999999998
