114
Lattice="22.0027 0.0 0.0 0.0 22.0027 0.0 0.0 0.0 22.0027"
Si 686 15.820699999999999 18.307099999999995 3.2369400000000006
Si 698 12.4513 1.0632999999999981 18.507
Si 703 10.584099999999996 13.795999999999996 6.3463899999999995
Si 720 12.074900000000003 2.254670000000001 10.209599999999998
Si 736 12.580500000000004 14.352799999999998 2.687750000000001
Si 752 11.014199999999999 0.04899999999999949 0.7601999999999975
Si 765 14.599900000000002 15.6037 3.5766799999999996
Si 801 12.654399999999999 21.7617 7.969249999999999
Si 819 16.7219 19.965300000000003 1.331799999999994
Si 825 12.409299999999998 1.0463999999999984 5.8282799999999995
Si 831 11.212999999999997 16.460200000000004 7.258559999999999
Si 843 14.3263 0.982999999999997 9.79945
Si 855 9.444379999999999 18.3469 6.975460000000002
Si 870 11.186499999999999 20.763300000000005 20.1439
Si 901 11.075999999999997 2.608550000000001 16.9419
Si 930 13.2105 15.7101 5.826370000000001
Si 965 13.267700000000001 19.8693 21.750400000000003
Si 983 12.486499999999996 18.7903 7.475080000000002
Si 999 11.721300000000003 21.530400000000004 3.477029999999999
O 2 10.096500000000002 19.2912 5.762080000000001
O 19 14.656600000000001 16.4245 5.1782900000000005
O 19 14.656600000000001 16.4245 5.1782900000000005
O 34 13.9378 1.049199999999999 17.781499999999998
O 43 12.4592 3.415189999999999 16.6985
O 57 9.960989999999999 0.017000000000003013 20.2989
O 78 12.387699999999999 19.104199999999995 0.8710000000000022
O 83 10.435500000000001 20.733499999999996 1.8057100000000013
O 83 10.435500000000001 20.733499999999996 1.8057100000000013
O 112 8.701249999999998 19.2377 8.125420000000002
O 116 11.540699999999998 15.231100000000001 6.089500000000001
O 116 11.540699999999998 15.231100000000001 6.089500000000001
O 116 11.540699999999998 15.231100000000001 6.089500000000001
O 125 9.5667 14.050500000000003 7.667349999999999
O 126 11.877799999999997 12.986099999999997 6.994299999999999
O 136 14.143000000000004 14.7377 6.7520500000000006
O 162 11.650099999999998 0.8975000000000009 16.844799999999996
O 162 11.650099999999998 0.8975000000000009 16.844799999999996
O 167 12.642199999999999 17.0496 6.649850000000001
O 167 12.642199999999999 17.0496 6.649850000000001
O 167 12.642199999999999 17.0496 6.649850000000001
O 174 12.672299999999996 0.8729999999999976 9.19312
O 174 12.672299999999996 0.8729999999999976 9.19312
O 174 12.672299999999996 0.8729999999999976 9.19312
O 205 14.335899999999999 18.7599 21.415200000000002
O 223 16.3691 21.6029 0.8828999999999994
O 229 10.105 12.416 5.5269200000000005
O 251 9.496199999999998 2.5381199999999993 17.440699999999996
O 265 11.700799999999997 1.4136999999999986 21.884000000000004
O 266 12.5185 19.572800000000004 20.287899999999997
O 266 12.5185 19.572800000000004 20.287899999999997
O 271 9.39835 0.5822000000000003 0.6221999999999994
O 275 14.723400000000002 2.165510000000001 8.738029999999998
O 281 11.673400000000004 2.9094000000000015 11.6979
O 297 10.342099999999999 21.537899999999997 4.362280000000002
O 321 17.194999999999997 19.3481 2.8645500000000013
O 321 17.194999999999997 19.3481 2.8645500000000013
O 322 15.1187 16.88 2.8026599999999995
O 322 15.1187 16.88 2.8026599999999995
O 330 10.154599999999999 19.703099999999996 19.4922
O 350 12.8764 19.342699999999997 5.992470000000001
O 351 8.11394 18.0673 5.954249999999998
O 353 14.664800000000003 18.9678 4.232879999999998
O 364 15.304399999999998 19.276500000000002 1.8556099999999986
O 364 15.304399999999998 19.276500000000002 1.8556099999999986
O 369 13.377199999999998 2.3005700000000004 6.496600000000001
O 373 13.173400000000004 15.0789 4.2080400000000004
O 373 13.173400000000004 15.0789 4.2080400000000004
O 373 13.173400000000004 15.0789 4.2080400000000004
O 377 12.841899999999999 0.17949999999999733 4.504159999999999
O 377 12.841899999999999 0.17949999999999733 4.504159999999999
O 381 10.786100000000001 2.5733800000000002 15.2103
O 390 12.462599999999998 3.7173799999999986 9.560970000000001
O 398 15.762600000000003 0.761099999999999 10.7193
O 415 11.5213 0.35249999999999915 6.976009999999999
O 415 11.5213 0.35249999999999915 6.976009999999999
O 424 11.918600000000001 21.6223 18.9993
O 424 11.918600000000001 21.6223 18.9993
O 439 9.71153 16.6517 6.81146
O 439 9.71153 16.6517 6.81146
O 440 17.232400000000002 19.046700000000005 0.14649999999999608
O 442 16.741900000000005 17.6857 4.5207000000000015
O 455 9.34169 14.535299999999996 5.225649999999998
O 457 12.337 20.0185 3.5027399999999993
O 464 12.248900000000003 20.283599999999996 8.28848
O 464 12.248900000000003 20.283599999999996 8.28848
O 470 10.531600000000001 1.9847199999999994 9.648430000000001
O 471 13.842099999999999 18.5376 8.284209999999998
O 476 11.461499999999997 15.585899999999999 2.5400899999999993
O 487 11.948600000000003 0.3954000000000022 2.1078599999999987
O 487 11.948600000000003 0.3954000000000022 2.1078599999999987
O 504 13.392199999999999 1.4662999999999968 19.8749
O 508 13.7634 21.9667 6.74503
O 508 13.7634 21.9667 6.74503
O 527 11.4575 2.3397299999999994 18.6399
O 527 11.4575 2.3397299999999994 18.6399
O 536 13.997199999999996 21.174700000000005 0.13279999999999603
O 544 11.011199999999999 18.1444 7.766000000000002
O 544 11.011199999999999 18.1444 7.766000000000002
O 544 11.011199999999999 18.1444 7.766000000000002
O 569 11.659700000000004 20.943 21.721
O 569 11.659700000000004 20.943 21.721
O 569 11.659700000000004 20.943 21.721
O 570 11.592699999999997 15.656000000000002 8.56336
O 577 11.326600000000003 2.018440000000002 5.032679999999999
O 579 15.844100000000001 14.7118 3.9521000000000015
O 586 13.486300000000004 1.6929899999999982 11.080400000000001
O 586 13.486300000000004 1.6929899999999982 11.080400000000001
O 588 14.1769 14.607900000000004 2.18872
O 588 14.1769 14.607900000000004 2.18872
O 614 14.5883 21.5179 9.125060000000001
O 614 14.5883 21.5179 9.125060000000001
O 640 11.897899999999996 13.9241 1.195699999999995
O 644 12.661599999999996 12.810599999999997 3.3274299999999997
O 668 18.4509 20.6951 1.6311099999999996
