6
Lattice="22.0027 0.0 0.0 0.0 22.0027 0.0 0.0 0.0 22.0027"
Si 721 5.131589999999999 6.443729999999999 4.792619999999999
O 90 3.8974399999999996 6.744699999999998 5.77365
O 257 6.255140000000001 5.77478 5.82884
O 278 6.3075399999999995 7.4877 4.24221
O 515 4.014420000000001 7.361090000000001 3.6216399999999993
O 613 5.003489999999999 5.193660000000001 3.718910000000001
