12
Lattice="22.0027 0.0 0.0 0.0 22.0027 0.0 0.0 0.0 22.0027"
Si 910 1.8642900000000004 18.252399999999998 3.9625400000000006
Si 986 0.4671999999999983 20.399199999999997 3.5917600000000007
O 1 1.2242000000000033 21.1405 2.2579899999999995
O 8 1.4435000000000002 17.2993 5.279060000000001
O 76 1.9761099999999985 19.8321 4.102740000000001
O 76 1.9761099999999985 19.8321 4.102740000000001
O 79 0.08439999999999515 21.588200000000004 4.619669999999999
O 314 1.6440699999999993 17.364899999999995 2.6084099999999992
O 409 0.00549999999999784 18.8062 3.746500000000001
O 409 0.00549999999999784 18.8062 3.746500000000001
O 507 3.556259999999998 18.0065 3.8606499999999997
O 520 20.9457 20.7471 2.383230000000001
