6
Lattice="22.0027 0.0 0.0 0.0 22.0027 0.0 0.0 0.0 22.0027"
Si 759 5.672740000000001 0.5372999999999948 8.292370000000002
O 82 6.431619999999999 1.0899999999999963 6.887350000000001
O 95 5.539619999999999 20.9543 7.576889999999999
O 326 4.2258700000000005 1.2088999999999999 8.13006
O 459 6.429500000000001 1.742090000000001 9.187000000000001
O 510 5.470760000000002 21.7726 10.0018
