12
Lattice="22.0027 0.0 0.0 0.0 22.0027 0.0 0.0 0.0 22.0027"
Si 720 12.220499999999998 2.26605 10.211400000000001
Si 843 14.520500000000002 1.0080999999999989 9.813379999999999
O 174 12.770500000000002 0.8325000000000031 9.139309999999998
O 174 12.770500000000002 0.8325000000000031 9.139309999999998
O 275 14.8261 2.289580000000001 8.78756
O 281 11.866499999999998 2.8612800000000007 11.7696
O 390 12.537299999999998 3.6757099999999987 9.46989
O 398 15.870099999999997 0.7496999999999971 10.768400000000003
O 470 10.665899999999997 1.9586299999999994 9.80734
O 586 13.6157 1.6667200000000015 11.026500000000002
O 586 13.6157 1.6667200000000015 11.026500000000002
O 614 14.828 21.5275 9.15186
