342
Lattice="22.0027 0.0 0.0 0.0 22.0027 0.0 0.0 0.0 22.0027"
Si 674 2.1064800000000012 5.029920000000001 12.781600000000001
Si 679 12.024899999999999 10.375600000000002 15.233900000000002
Si 681 7.2997499999999995 4.512319999999999 15.618399999999998
Si 686 15.849300000000003 18.623700000000003 3.114160000000002
Si 692 6.388760000000001 16.179400000000005 5.918490000000002
Si 693 3.930910000000001 2.041689999999999 15.013200000000001
Si 703 10.738600000000002 13.868100000000002 6.24558
Si 706 7.114280000000001 8.37932 20.882499999999997
Si 714 7.202940000000002 18.576200000000004 4.499140000000001
Si 715 15.9616 13.449299999999997 15.3077
Si 731 20.888099999999998 10.993600000000004 15.737100000000002
Si 736 12.689499999999999 14.314399999999996 2.648389999999999
Si 749 19.2103 4.586500000000001 18.435800000000004
Si 750 20.2242 7.404489999999999 19.807999999999996
Si 765 14.675500000000003 15.910900000000002 3.40663
Si 766 2.332840000000001 0.12509999999999621 21.0868
Si 774 20.176800000000004 5.33343 15.184100000000004
Si 781 1.4528000000000034 13.805600000000002 1.6336200000000005
Si 783 9.25818 7.121839999999999 12.089499999999997
Si 793 12.823600000000003 12.802499999999998 14.752199999999998
Si 794 6.826989999999999 2.6898799999999987 19.839299999999998
Si 805 21.360199999999995 3.418610000000001 21.5104
Si 814 14.383700000000001 14.508399999999998 13.456300000000002
Si 819 16.8665 20.056900000000002 1.2584000000000017
Si 831 11.407900000000001 16.479900000000004 7.295439999999999
Si 832 4.976670000000002 7.88532 15.6741
Si 835 5.10735 11.045199999999998 20.6501
Si 842 6.83428 7.036269999999998 17.041
Si 847 6.865120000000001 20.816 3.386680000000002
Si 850 14.502300000000002 11.6448 21.514299999999995
Si 852 18.5179 14.915499999999998 1.049900000000001
Si 855 9.521089999999997 18.398100000000003 6.95729
Si 856 21.3507 2.069939999999999 18.4389
Si 869 10.810500000000001 14.722600000000003 15.7283
Si 894 0.7203999999999979 5.344529999999999 15.886799999999997
Si 897 6.040279999999999 13.881699999999999 21.324100000000005
Si 907 3.843160000000001 4.035019999999999 19.7563
Si 918 13.978799999999996 11.553299999999997 2.713380000000001
Si 920 10.3079 8.104580000000002 14.022000000000002
Si 926 3.471610000000002 14.583299999999998 21.736899999999995
Si 930 13.333400000000001 15.7619 5.71322
Si 940 2.3993399999999987 11.322 2.3432700000000004
Si 949 12.424299999999999 14.153099999999998 17.566800000000004
Si 950 20.200800000000005 6.853649999999998 17.2634
Si 955 6.508469999999999 4.62332 18.149400000000004
Si 956 6.489909999999998 5.1876999999999995 12.522499999999997
Si 960 2.36599 3.3391599999999997 17.530599999999996
Si 963 20.7137 13.686600000000002 0.6669999999999945
Si 968 10.300999999999998 5.903410000000001 15.2839
Si 976 8.53191 9.369719999999997 17.896199999999997
Si 983 12.7839 18.692399999999996 7.64575
Si 984 12.419700000000002 12.763700000000004 19.5322
Si 989 21.7644 9.3613 17.670599999999997
Si 990 3.428650000000001 2.10923 0.30059999999999576
Si 996 14.943699999999996 17.305200000000003 12.692499999999999
Si 1003 0.2693999999999974 3.653030000000001 13.942800000000002
Si 1007 18.991000000000003 9.17041 15.641200000000001
O 2 10.200500000000002 19.4483 5.870180000000001
O 9 3.8982899999999994 3.447520000000001 21.299700000000005
O 9 3.8982899999999994 3.447520000000001 21.299700000000005
O 12 5.524180000000001 3.959900000000001 12.0164
O 13 19.1024 8.57309 19.652800000000003
O 14 1.9196799999999996 6.490669999999998 16.0029
O 19 14.674299999999999 16.612399999999997 5.0548
O 19 14.674299999999999 16.612399999999997 5.0548
O 26 1.1334000000000017 12.194199999999999 1.6290499999999994
O 26 1.1334000000000017 12.194199999999999 1.6290499999999994
O 28 19.457200000000004 5.224599999999999 16.6951
O 28 19.457200000000004 5.224599999999999 16.6951
O 28 19.457200000000004 5.224599999999999 16.6951
O 30 10.6022 8.081619999999997 12.1414
O 30 10.6022 8.081619999999997 12.1414
O 31 13.6155 11.932800000000004 20.215
O 31 13.6155 11.932800000000004 20.215
O 32 2.9766499999999994 12.953099999999996 2.4703300000000006
O 32 2.9766499999999994 12.953099999999996 2.4703300000000006
O 33 16.063099999999995 11.5333 21.9021
O 35 3.9804899999999996 10.757300000000004 2.864270000000001
O 37 14.607099999999999 13.407399999999999 21.8974
O 39 1.6265099999999997 10.834799999999998 3.655829999999998
O 42 17.8693 16.370899999999995 0.45769999999999555
O 48 7.54561 16.015400000000003 4.68751
O 60 11.332600000000003 16.057099999999995 14.854600000000001
O 63 12.340500000000002 11.418200000000002 13.926999999999996
O 63 12.340500000000002 11.418200000000002 13.926999999999996
O 65 8.031569999999999 7.806000000000001 17.7383
O 65 8.031569999999999 7.806000000000001 17.7383
O 67 7.995149999999999 20.0688 4.536750000000001
O 67 7.995149999999999 20.0688 4.536750000000001
O 68 5.456590000000002 3.8065299999999986 19.134199999999996
O 68 5.456590000000002 3.8065299999999986 19.134199999999996
O 68 5.456590000000002 3.8065299999999986 19.134199999999996
O 71 3.43159 8.494800000000001 15.863699999999998
O 77 2.4523200000000003 13.346999999999998 21.356799999999996
O 84 0.8543999999999983 5.906739999999999 12.0611
O 85 13.281299999999998 15.547100000000004 17.4498
O 89 19.8079 6.101330000000001 18.753000000000004
O 89 19.8079 6.101330000000001 18.753000000000004
O 89 19.8079 6.101330000000001 18.753000000000004
O 100 4.571659999999998 14.235900000000004 20.366599999999995
O 100 4.571659999999998 14.235900000000004 20.366599999999995
O 105 8.254369999999998 9.17952 19.762199999999996
O 105 8.254369999999998 9.17952 19.762199999999996
O 106 21.593300000000003 10.286100000000001 14.3982
O 111 17.438999999999997 9.515269999999997 16.0027
O 112 8.823150000000002 19.2702 8.1006
O 116 11.7471 15.3229 6.042529999999999
O 116 11.7471 15.3229 6.042529999999999
O 116 11.7471 15.3229 6.042529999999999
O 118 2.22035 1.8872299999999989 21.181100000000004
O 118 2.22035 1.8872299999999989 21.181100000000004
O 121 10.1298 9.437749999999998 18.057099999999995
O 122 21.418200000000002 6.29907 16.2721
O 122 21.418200000000002 6.29907 16.2721
O 122 21.418200000000002 6.29907 16.2721
O 125 9.73096 14.138899999999996 7.56399
O 126 11.9875 12.974799999999998 6.712500000000002
O 128 7.777619999999999 15.534299999999998 6.8139199999999995
O 129 4.921409999999998 11.082200000000004 0.34779999999999944
O 132 12.848900000000004 10.0579 2.779019999999999
O 133 6.123909999999999 12.390400000000003 20.5662
O 133 6.123909999999999 12.390400000000003 20.5662
O 134 8.26632 8.15363 11.3505
O 135 3.5124400000000016 11.348699999999997 20.3004
O 136 14.221999999999998 14.778000000000002 6.584720000000001
O 139 6.838380000000001 7.2848299999999995 15.426399999999997
O 139 6.838380000000001 7.2848299999999995 15.426399999999997
O 140 5.685120000000001 8.334120000000002 17.0832
O 140 5.685120000000001 8.334120000000002 17.0832
O 142 0.9893999999999963 2.344709999999999 18.113900000000005
O 142 0.9893999999999963 2.344709999999999 18.113900000000005
O 143 5.955110000000001 0.008000000000002672 4.050799999999999
O 144 1.2978000000000023 4.773910000000001 14.4012
O 144 1.2978000000000023 4.773910000000001 14.4012
O 144 1.2978000000000023 4.773910000000001 14.4012
O 145 2.495940000000001 10.141299999999998 1.088000000000001
O 150 7.680900000000001 8.717589999999998 0.36489999999999867
O 153 17.6688 4.283739999999998 18.271800000000002
O 158 0.8442000000000007 14.3875 3.163879999999999
O 161 20.304999999999996 3.36261 18.3736
O 161 20.304999999999996 3.36261 18.3736
O 164 13.222200000000004 11.558899999999998 15.899599999999996
O 164 13.222200000000004 11.558899999999998 15.899599999999996
O 166 6.791319999999999 3.366299999999999 21.4079
O 167 12.924699999999998 17.0348 6.866130000000002
O 167 12.924699999999998 17.0348 6.866130000000002
O 167 12.924699999999998 17.0348 6.866130000000002
O 168 9.98797 7.4683600000000006 15.522899999999996
O 168 9.98797 7.4683600000000006 15.522899999999996
O 170 5.70515 16.8396 7.317710000000002
O 172 5.800149999999999 1.4283000000000001 19.770799999999998
O 175 10.577099999999998 5.204219999999999 16.7488
O 176 18.5331 15.168200000000002 2.6805699999999995
O 181 7.747319999999998 18.0528 3.000730000000001
O 187 5.43647 6.362469999999998 12.309900000000003
O 196 4.41677 0.5812000000000026 15.632700000000003
O 199 7.604420000000001 2.87706 15.517599999999998
O 201 16.005100000000002 17.2983 14.129899999999996
O 202 10.972600000000003 14.9316 17.497199999999996
O 202 10.972600000000003 14.9316 17.497199999999996
O 203 11.862399999999997 5.9456500000000005 14.816199999999998
O 210 20.9776 12.662400000000002 15.496600000000004
O 212 5.859390000000001 17.522899999999996 4.977520000000002
O 212 5.859390000000001 17.522899999999996 4.977520000000002
O 214 14.433699999999998 13.152199999999997 14.5759
O 214 14.433699999999998 13.152199999999997 14.5759
O 214 14.433699999999998 13.152199999999997 14.5759
O 217 13.5902 11.2837 0.9838999999999984
O 217 13.5902 11.2837 0.9838999999999984
O 218 19.111499999999996 7.640409999999999 16.397899999999996
O 218 19.111499999999996 7.640409999999999 16.397899999999996
O 220 20.935999999999996 12.694100000000002 21.2914
O 223 16.5153 21.7024 0.6874000000000038
O 229 10.148999999999997 12.500499999999999 5.334569999999999
O 230 5.788340000000002 4.0886 16.6585
O 230 5.788340000000002 4.0886 16.6585
O 233 14.0504 18.6262 12.781600000000001
O 235 8.77526 5.003420000000002 14.905400000000004
O 235 8.77526 5.003420000000002 14.905400000000004
O 237 0.6993000000000009 8.80498 16.4239
O 238 17.6328 13.324299999999997 15.3295
O 239 2.8204899999999995 1.5738999999999983 13.944599999999998
O 242 18.9528 4.582930000000001 14.477599999999999
O 246 15.019400000000001 16.5003 11.247699999999998
O 249 18.912499999999998 4.344449999999998 20.1296
O 250 19.484600000000004 6.648340000000001 21.127399999999998
O 254 14.729099999999999 14.162400000000002 11.950999999999997
O 255 11.4881 12.653299999999998 18.2142
O 255 11.4881 12.653299999999998 18.2142
O 260 12.225399999999997 13.820200000000003 15.918400000000002
O 260 12.225399999999997 13.820200000000003 15.918400000000002
O 260 12.225399999999997 13.820200000000003 15.918400000000002
O 273 4.91704 8.11469 13.967900000000004
O 274 6.167550000000002 20.543899999999997 1.8800799999999995
O 280 20.500400000000003 0.8624000000000009 19.2786
O 282 21.203300000000002 4.318929999999998 12.962
O 284 2.6244499999999995 14.9697 1.158300000000004
O 284 2.6244499999999995 14.9697 1.158300000000004
O 285 5.38082 14.9361 5.693470000000001
O 294 20.1003 2.445129999999999 21.381400000000003
O 299 20.017600000000005 15.292800000000003 0.5822999999999965
O 299 20.017600000000005 15.292800000000003 0.5822999999999965
O 304 4.059079999999998 3.7140699999999995 14.860499999999998
O 309 8.29384 9.749660000000002 16.199299999999997
O 311 3.512620000000002 4.514199999999999 17.4029
O 319 14.609399999999997 10.944199999999999 4.137889999999999
O 321 17.253800000000002 19.599099999999996 2.8791699999999985
O 321 17.253800000000002 19.599099999999996 2.8791699999999985
O 322 15.0643 17.2816 2.5932199999999987
O 322 15.0643 17.2816 2.5932199999999987
O 323 0.07029999999999603 2.101040000000001 14.154599999999999
O 327 3.006730000000001 0.3330999999999946 0.6772999999999954
O 327 3.006730000000001 0.3330999999999946 0.6772999999999954
O 333 5.2456 10.671600000000002 18.8494
O 335 9.96874 6.4711 13.520799999999998
O 335 9.96874 6.4711 13.520799999999998
O 335 9.96874 6.4711 13.520799999999998
O 337 5.545110000000001 7.970510000000001 20.350600000000004
O 339 0.05980000000000274 2.4235299999999995 20.121399999999998
O 339 0.05980000000000274 2.4235299999999995 20.121399999999998
O 343 12.660500000000003 13.986999999999998 13.503199999999996
O 343 12.660500000000003 13.986999999999998 13.503199999999996
O 349 21.3826 4.187989999999999 15.343599999999999
O 349 21.3826 4.187989999999999 15.343599999999999
O 349 21.3826 4.187989999999999 15.343599999999999
O 350 13.005399999999998 19.370700000000003 6.052969999999998
O 351 8.119780000000002 18.128400000000003 5.946580000000001
O 351 8.119780000000002 18.128400000000003 5.946580000000001
O 353 14.774599999999996 19.1544 4.175080000000001
O 354 1.0808999999999997 9.30519 18.675699999999996
O 359 21.777800000000003 4.805040000000002 20.679599999999997
O 360 3.2103900000000003 2.486789999999999 18.936399999999995
O 360 3.2103900000000003 2.486789999999999 18.936399999999995
O 363 12.272700000000004 14.344799999999996 20.043399999999995
O 364 15.345000000000002 19.575599999999998 1.7601499999999994
O 364 15.345000000000002 19.575599999999998 1.7601499999999994
O 365 21.070899999999998 1.3149000000000015 16.953999999999997
O 370 9.624190000000002 5.791820000000001 11.1311
O 373 13.375499999999999 15.047999999999998 4.133140000000001
O 373 13.375499999999999 15.047999999999998 4.133140000000001
O 373 13.375499999999999 15.047999999999998 4.133140000000001
O 386 16.8364 14.198399999999996 1.5534800000000004
O 387 4.650210000000001 6.288959999999999 15.974799999999998
O 389 16.393000000000004 18.2623 12.040200000000002
O 394 14.397899999999996 9.8981 21.02
O 396 7.872340000000001 6.065860000000001 12.689499999999999
O 396 7.872340000000001 6.065860000000001 12.689499999999999
O 406 15.283800000000003 12.426399999999997 2.2662699999999987
O 411 2.0731399999999987 4.181329999999999 19.6696
O 418 10.543099999999999 11.072700000000001 15.593700000000002
O 423 7.058070000000001 5.386099999999999 10.466799999999996
O 428 1.170099999999998 21.117 21.5825
O 433 5.027419999999999 1.678049999999999 0.42500000000000426
O 439 9.868089999999999 16.774400000000004 6.75855
O 439 9.868089999999999 16.774400000000004 6.75855
O 440 17.3156 19.155400000000004 0.026199999999995782
O 442 16.790200000000002 17.6957 4.227740000000001
O 449 15.921699999999998 11.922 16.016700000000004
O 455 9.629160000000002 14.608999999999998 5.113780000000002
O 458 2.97935 2.3047000000000004 16.4246
O 458 2.97935 2.3047000000000004 16.4246
O 464 12.397299999999998 20.242099999999997 8.29833
O 469 7.743259999999999 6.86946 20.577299999999997
O 471 14.2437 18.592199999999995 8.294450000000001
O 476 11.632099999999998 15.6767 2.6288400000000003
O 478 5.283470000000001 1.8691500000000012 13.8141
O 479 20.993600000000004 7.965669999999999 18.270299999999995
O 479 20.993600000000004 7.965669999999999 18.270299999999995
O 479 20.993600000000004 7.965669999999999 18.270299999999995
O 490 6.42878 4.86403 14.2548
O 490 6.42878 4.86403 14.2548
O 491 5.886389999999999 6.206120000000002 18.378800000000002
O 491 5.886389999999999 6.206120000000002 18.378800000000002
O 493 14.0378 16.1086 13.484100000000002
O 493 14.0378 16.1086 13.484100000000002
O 498 6.543559999999999 10.034700000000004 20.8413
O 498 6.543559999999999 10.034700000000004 20.8413
O 499 15.997199999999996 14.559900000000003 14.0399
O 499 15.997199999999996 14.559900000000003 14.0399
O 502 4.102709999999998 5.62387 20.0373
O 503 1.5585899999999988 3.368660000000002 12.693000000000001
O 503 1.5585899999999988 3.368660000000002 12.693000000000001
O 505 19.0221 13.3616 0.6707000000000036
O 505 19.0221 13.3616 0.6707000000000036
O 514 21.918399999999995 11.062000000000001 17.1302
O 514 21.918399999999995 11.062000000000001 17.1302
O 518 3.73461 21.696 20.515199999999997
O 526 19.184500000000003 10.992300000000004 15.225600000000004
O 526 19.184500000000003 10.992300000000004 15.225600000000004
O 529 7.468720000000001 5.411570000000001 16.9873
O 529 7.468720000000001 5.411570000000001 16.9873
O 529 7.468720000000001 5.411570000000001 16.9873
O 530 13.617700000000003 13.353600000000004 18.172500000000003
O 530 13.617700000000003 13.353600000000004 18.172500000000003
O 539 11.4558 9.12257 14.272200000000002
O 539 11.4558 9.12257 14.272200000000002
O 543 9.246309999999998 15.247699999999998 16.054400000000005
O 544 11.214099999999998 18.1536 7.8190300000000015
O 544 11.214099999999998 18.1536 7.8190300000000015
O 544 11.214099999999998 18.1536 7.8190300000000015
O 545 2.8635100000000016 15.802400000000002 20.824
O 549 7.598040000000001 3.735430000000001 18.879899999999996
O 549 7.598040000000001 3.735430000000001 18.879899999999996
O 553 7.035790000000002 14.9271 20.518599999999996
O 555 20.160699999999995 4.39292 0.4573999999999998
O 556 8.12999 1.5777399999999986 20.141099999999998
O 562 21.374600000000004 7.885639999999999 20.861899999999995
O 570 11.723299999999998 15.628899999999998 8.632470000000001
O 571 0.4211000000000027 3.315529999999999 0.7187999999999946
O 575 1.1802999999999955 4.380779999999998 17.0551
O 575 1.1802999999999955 4.380779999999998 17.0551
O 579 15.994199999999996 14.994299999999999 3.704699999999999
O 585 7.01342 13.563300000000002 0.5690999999999988
O 587 12.370300000000004 9.41997 16.56
O 588 14.2332 14.838600000000003 2.0178699999999985
O 588 14.2332 14.838600000000003 2.0178699999999985
O 592 20.3109 9.585800000000003 16.5966
O 592 20.3109 9.585800000000003 16.5966
O 592 20.3109 9.585800000000003 16.5966
O 596 0.20710000000000406 14.3537 0.7456000000000031
O 596 0.20710000000000406 14.3537 0.7456000000000031
O 601 20.7244 13.3289 2.334039999999998
O 606 3.2619700000000016 6.010010000000001 13.502599999999997
O 612 8.21751 21.675699999999996 2.7542700000000018
O 617 7.93262 10.995300000000004 18.378599999999995
O 619 5.880849999999999 19.527999999999995 4.01276
O 619 5.880849999999999 19.527999999999995 4.01276
O 621 2.846709999999998 2.8198599999999985 1.6407099999999986
O 625 10.202299999999997 13.4387 14.690299999999997
O 626 11.2548 12.263899999999996 20.682800000000004
O 627 15.556900000000002 14.456199999999999 16.542800000000003
O 631 20.452299999999997 6.56466 14.063100000000002
O 634 1.6982999999999997 0.3877999999999986 19.4626
O 640 12.097600000000003 13.937699999999996 1.1280000000000001
O 644 12.841600000000003 12.6936 3.189519999999998
O 644 12.841600000000003 12.6936 3.189519999999998
O 648 4.874089999999999 14.423199999999998 0.4871999999999943
O 648 4.874089999999999 14.423199999999998 0.4871999999999943
O 650 8.844899999999999 8.804120000000001 13.739099999999997
O 653 19.1397 8.68703 14.031000000000002
O 655 2.9693599999999982 4.758869999999998 11.382700000000003
O 668 18.6559 20.663699999999995 1.5948799999999999
