18
Lattice="22.0027 0.0 0.0 0.0 22.0027 0.0 0.0 0.0 22.0027"
Si 688 4.762419999999999 12.667400000000004 11.113200000000003
Si 723 2.2474600000000002 12.072199999999999 10.327000000000002
Si 872 7.271139999999999 11.946699999999996 12.8554
O 101 5.759820000000001 11.971599999999999 12.236799999999999
O 101 5.759820000000001 11.971599999999999 12.236799999999999
O 154 8.58538 11.274800000000003 14.225199999999997
O 188 3.300370000000001 13.287299999999998 9.856370000000002
O 188 3.300370000000001 13.287299999999998 9.856370000000002
O 194 1.0859999999999985 12.852300000000003 11.107900000000004
O 198 5.542829999999999 12.104900000000004 9.759629999999998
O 340 7.791740000000001 10.724300000000003 11.819399999999998
O 454 2.8589699999999993 10.5425 10.502199999999998
O 462 3.359069999999999 12.303299999999997 11.9466
O 462 3.359069999999999 12.303299999999997 11.9466
O 494 5.129480000000001 14.302200000000003 11.3691
O 524 6.61749 12.781700000000004 14.3357
O 537 8.154160000000001 13.184500000000003 12.315699999999996
O 563 1.5929800000000007 11.854600000000001 8.89679
