6
Lattice="22.0027 0.0 0.0 0.0 22.0027 0.0 0.0 0.0 22.0027"
Si 992 9.317780000000003 0.4776999999999987 14.1463
O 6 7.862729999999999 1.2274999999999991 13.403099999999998
O 50 10.017399999999999 1.6420400000000015 13.087900000000001
O 87 8.90824 0.5869999999999962 15.6769
O 277 11.006000000000004 21.7499 14.4464
O 639 9.00852 21.054099999999995 13.4102
