336
Lattice="22.0027 0.0 0.0 0.0 22.0027 0.0 0.0 0.0 22.0027"
Si 674 1.9310800000000015 5.123370000000001 13.0181
Si 679 11.952200000000001 10.5046 15.252199999999998
Si 681 7.18019 4.523520000000001 15.737199999999998
Si 686 15.803500000000003 18.569999999999997 3.3088300000000004
Si 692 6.36486 16.280599999999996 5.973600000000001
Si 693 3.5958900000000007 2.0912700000000015 15.087300000000003
Si 703 10.602599999999999 13.823699999999999 6.350439999999999
Si 714 7.1241699999999994 18.572599999999998 4.601710000000001
Si 715 15.715999999999998 13.5547 15.373700000000003
Si 731 20.885499999999997 10.980099999999997 15.8674
Si 736 12.4924 14.263000000000002 2.7218400000000003
Si 749 19.0307 4.601569999999999 18.4779
Si 750 20.078099999999996 7.61562 19.8239
Si 765 14.4436 15.862300000000001 3.5716
Si 766 2.0726000000000013 0.1963000000000008 21.1761
Si 774 19.815699999999996 5.197869999999998 15.240100000000002
Si 778 18.922100000000004 7.323339999999998 5.83587
Si 783 9.05423 7.211299999999998 12.229099999999999
Si 793 12.640899999999998 12.938300000000002 14.833000000000002
Si 794 6.600339999999999 2.686139999999998 20.0121
Si 796 20.7715 9.13121 6.527529999999999
Si 797 18.735699999999998 7.64939 2.650929999999999
Si 805 21.181699999999996 3.50535 21.5748
Si 814 14.139799999999997 14.498700000000003 13.522899999999996
Si 819 16.7891 20.026799999999998 1.2911999999999964
Si 823 0.5054999999999978 8.95401 9.215959999999999
Si 828 19.482400000000002 10.0517 1.6352800000000016
Si 831 11.265199999999997 16.429999999999996 7.41591
Si 832 4.8309999999999995 7.877790000000001 15.8216
Si 841 20.719200000000004 10.933499999999999 9.228829999999999
Si 842 6.7032799999999995 7.1265 17.285
Si 847 6.733139999999999 20.868100000000002 3.455919999999999
Si 850 14.394299999999998 11.741600000000002 21.696699999999996
Si 855 9.375719999999998 18.279299999999996 6.9700500000000005
Si 856 21.1078 2.079979999999999 18.5757
Si 869 10.634699999999999 14.831 15.800999999999998
Si 881 20.822300000000002 7.823460000000001 0.23219999999999885
Si 894 0.49629999999999797 5.343509999999998 16.063
Si 907 3.5808199999999992 3.9949900000000014 19.7756
Si 918 13.887400000000003 11.473400000000002 2.8616300000000017
Si 920 10.1705 8.21576 14.0656
Si 930 13.184000000000001 15.677600000000002 5.85482
Si 936 8.896840000000001 5.058910000000001 13.401300000000003
Si 949 12.182199999999998 14.076600000000003 17.6741
Si 950 19.9057 6.851559999999999 17.2867
Si 955 6.269850000000002 4.730720000000002 18.382499999999997
Si 960 2.081479999999999 3.25629 17.4843
Si 968 10.135300000000004 5.947210000000002 15.504999999999999
Si 983 12.568200000000001 18.746799999999997 7.623100000000001
Si 984 12.196699999999996 12.7578 19.7602
Si 989 21.657 9.281279999999999 17.524199999999997
Si 990 3.3103900000000017 2.200479999999999 0.3774999999999977
Si 996 14.785999999999998 17.325999999999997 12.750800000000002
Si 1003 0.008099999999998886 3.59525 14.1221
Si 1004 17.2777 17.0316 13.4911
Si 1007 18.845000000000002 9.23732 15.6465
O 2 9.992239999999999 19.469799999999996 5.999759999999998
O 9 3.7920799999999986 3.4978599999999993 21.384800000000002
O 9 3.7920799999999986 3.4978599999999993 21.384800000000002
O 13 18.785299999999996 8.58219 19.793899999999997
O 14 1.7187799999999989 6.450659999999999 16.101699999999997
O 19 14.569300000000002 16.5988 5.198429999999998
O 19 14.569300000000002 16.5988 5.198429999999998
O 23 1.5781400000000012 9.603640000000002 8.0807
O 28 19.1311 5.196819999999999 16.792000000000005
O 28 19.1311 5.196819999999999 16.792000000000005
O 28 19.1311 5.196819999999999 16.792000000000005
O 30 10.388499999999997 8.162409999999998 12.362199999999998
O 30 10.388499999999997 8.162409999999998 12.362199999999998
O 31 13.358700000000002 11.9637 20.5204
O 31 13.358700000000002 11.9637 20.5204
O 33 15.926800000000004 11.429399999999998 21.887599999999996
O 37 14.590300000000003 13.380300000000002 0.06299999999999528
O 48 7.443999999999999 16.05 4.730329999999999
O 60 11.175700000000003 16.0939 14.9528
O 63 12.254999999999999 11.641700000000004 13.940299999999997
O 63 12.254999999999999 11.641700000000004 13.940299999999997
O 65 7.93947 8.0774 17.6989
O 67 7.93704 20.0866 4.654689999999999
O 67 7.93704 20.0866 4.654689999999999
O 68 5.2691300000000005 3.9649900000000002 19.389
O 68 5.2691300000000005 3.9649900000000002 19.389
O 68 5.2691300000000005 3.9649900000000002 19.389
O 71 3.336739999999999 8.593880000000002 15.967600000000001
O 84 0.632799999999996 5.83475 12.393000000000004
O 85 13.1324 15.546899999999997 17.543399999999995
O 89 19.565299999999997 6.281269999999999 18.763899999999996
O 89 19.565299999999997 6.281269999999999 18.763899999999996
O 89 19.565299999999997 6.281269999999999 18.763899999999996
O 97 19.692899999999998 7.83783 7.350829999999998
O 97 19.692899999999998 7.83783 7.350829999999998
O 102 10.2762 4.257809999999999 13.285799999999998
O 106 21.638499999999997 10.2869 14.6309
O 111 17.2279 9.470499999999998 16.092000000000002
O 112 8.633689999999998 19.2796 8.1589
O 116 11.6127 15.183600000000002 6.205020000000001
O 116 11.6127 15.183600000000002 6.205020000000001
O 116 11.6127 15.183600000000002 6.205020000000001
O 118 2.2129200000000004 1.8451400000000007 21.1638
O 118 2.2129200000000004 1.8451400000000007 21.1638
O 122 21.2279 6.364250000000002 16.502
O 122 21.2279 6.364250000000002 16.502
O 122 21.2279 6.364250000000002 16.502
O 124 21.4357 7.826090000000001 9.111900000000002
O 125 9.56363 14.018000000000004 7.57216
O 126 11.843 13.0547 7.11112
O 128 7.64331 15.550299999999996 6.8664200000000015
O 132 12.717299999999998 9.985 2.89002
O 134 8.146 8.179950000000002 11.226200000000002
O 136 14.110200000000003 14.7011 6.748360000000002
O 139 6.546240000000001 7.385349999999999 15.682999999999996
O 139 6.546240000000001 7.385349999999999 15.682999999999996
O 140 5.456160000000001 8.349610000000002 17.2769
O 140 5.456160000000001 8.349610000000002 17.2769
O 142 0.8125 2.2497100000000003 18.217699999999997
O 142 0.8125 2.2497100000000003 18.217699999999997
O 143 5.951409999999999 0.10210000000000008 4.126639999999998
O 144 1.0925999999999974 4.763729999999999 14.593099999999996
O 144 1.0925999999999974 4.763729999999999 14.593099999999996
O 144 1.0925999999999974 4.763729999999999 14.593099999999996
O 148 19.4064 9.000400000000003 5.525769999999998
O 148 19.4064 9.000400000000003 5.525769999999998
O 153 17.381599999999995 4.2379999999999995 18.4977
O 161 20.1895 3.419529999999998 18.2908
O 161 20.1895 3.419529999999998 18.2908
O 164 13.085399999999996 11.612100000000002 16.0005
O 164 13.085399999999996 11.612100000000002 16.0005
O 166 6.702390000000001 3.2927500000000016 21.485199999999995
O 167 12.787699999999997 17.012400000000003 6.903700000000001
O 167 12.787699999999997 17.012400000000003 6.903700000000001
O 167 12.787699999999997 17.012400000000003 6.903700000000001
O 168 9.96339 7.6428699999999985 15.681999999999999
O 168 9.96339 7.6428699999999985 15.681999999999999
O 170 5.645889999999998 16.901100000000003 7.46217
O 172 5.38251 1.5088800000000013 19.874
O 175 10.183499999999999 5.480050000000002 17.1225
O 181 7.555319999999998 18.033199999999997 3.1357099999999996
O 196 4.145389999999999 0.6400999999999968 15.815000000000001
O 199 7.36007 2.9298399999999987 15.734100000000002
O 201 15.798100000000002 17.394899999999996 14.185300000000002
O 201 15.798100000000002 17.394899999999996 14.185300000000002
O 202 10.7531 15.005100000000002 17.516899999999996
O 202 10.7531 15.005100000000002 17.516899999999996
O 203 11.652400000000004 5.758279999999999 15.053299999999997
O 210 20.9759 12.5765 15.618399999999998
O 212 5.886309999999998 17.618100000000002 5.153790000000001
O 212 5.886309999999998 17.618100000000002 5.153790000000001
O 214 14.262000000000004 13.197800000000004 14.575
O 214 14.262000000000004 13.197800000000004 14.575
O 214 14.262000000000004 13.197800000000004 14.575
O 217 13.4483 11.362199999999998 1.1310999999999964
O 217 13.4483 11.362199999999998 1.1310999999999964
O 218 18.879300000000004 7.68272 16.4286
O 218 18.879300000000004 7.68272 16.4286
O 223 16.3732 21.668499999999998 0.794000000000004
O 225 8.04731 3.807459999999999 12.5866
O 229 10.200300000000002 12.552800000000001 5.385819999999999
O 230 5.668559999999999 4.281009999999998 16.852300000000003
O 230 5.668559999999999 4.281009999999998 16.852300000000003
O 233 13.895599999999998 18.627 12.6934
O 235 8.741130000000002 4.9788299999999985 15.086900000000004
O 235 8.741130000000002 4.9788299999999985 15.086900000000004
O 235 8.741130000000002 4.9788299999999985 15.086900000000004
O 237 0.5970000000000013 8.655809999999999 16.4352
O 238 17.433700000000005 13.458500000000004 15.4785
O 239 2.5953300000000006 1.3941000000000017 13.9905
O 242 18.6155 4.344709999999999 14.670300000000001
O 246 14.869899999999998 16.3252 11.446200000000001
O 249 18.976199999999995 4.432559999999999 20.1741
O 250 19.5485 6.743010000000002 21.2897
O 250 19.5485 6.743010000000002 21.2897
O 254 14.473099999999999 13.9988 11.9772
O 255 11.253199999999996 12.663299999999996 18.360400000000002
O 255 11.253199999999996 12.663299999999996 18.360400000000002
O 260 12.066500000000001 13.861300000000004 16.0802
O 260 12.066500000000001 13.861300000000004 16.0802
O 260 12.066500000000001 13.861300000000004 16.0802
O 273 4.808430000000001 8.069500000000001 14.1024
O 274 6.243269999999999 20.4706 1.9520599999999995
O 276 21.9376 10.1863 10.042999999999996
O 276 21.9376 10.1863 10.042999999999996
O 280 20.195799999999995 0.8252999999999986 19.433899999999998
O 282 20.9156 4.102399999999999 12.953300000000002
O 285 5.281410000000001 15.081599999999998 5.701039999999999
O 293 18.3807 7.168340000000001 4.244430000000001
O 293 18.3807 7.168340000000001 4.244430000000001
O 294 19.8432 2.48283 21.487600000000004
O 304 3.881219999999999 3.7423800000000007 14.978199999999998
O 307 18.4421 18.166100000000004 13.407799999999998
O 308 20.631900000000005 10.486799999999999 2.7015700000000002
O 311 3.3332599999999992 4.376629999999999 17.468700000000002
O 312 21.782299999999996 7.867229999999999 6.2660599999999995
O 313 17.524800000000003 15.876499999999997 12.393699999999999
O 319 14.3708 10.829899999999999 4.21791
O 321 17.119900000000005 19.639600000000005 3.0165100000000002
O 321 17.119900000000005 19.639600000000005 3.0165100000000002
O 322 15.026 17.1977 2.820640000000001
O 322 15.026 17.1977 2.820640000000001
O 323 21.8424 2.080000000000002 14.412499999999998
O 327 2.744530000000001 0.436399999999999 0.7736999999999981
O 327 2.744530000000001 0.436399999999999 0.7736999999999981
O 329 18.818500000000004 9.242639999999998 3.0963299999999983
O 329 18.818500000000004 9.242639999999998 3.0963299999999983
O 335 9.670939999999998 6.586790000000001 13.727099999999997
O 335 9.670939999999998 6.586790000000001 13.727099999999997
O 335 9.670939999999998 6.586790000000001 13.727099999999997
O 335 9.670939999999998 6.586790000000001 13.727099999999997
O 339 21.8332 2.5318900000000006 20.236
O 339 21.8332 2.5318900000000006 20.236
O 343 12.443099999999998 14.106300000000001 13.591600000000003
O 343 12.443099999999998 14.106300000000001 13.591600000000003
O 345 18.011600000000005 10.880500000000001 1.6024700000000003
O 349 21.175299999999996 4.270720000000001 15.387699999999999
O 349 21.175299999999996 4.270720000000001 15.387699999999999
O 349 21.175299999999996 4.270720000000001 15.387699999999999
O 350 12.778400000000001 19.201399999999996 6.048349999999999
O 351 7.997250000000001 18.017500000000002 5.94783
O 351 7.997250000000001 18.017500000000002 5.94783
O 353 14.6114 19.300299999999996 4.266650000000002
O 354 0.9644999999999939 9.18188 18.691300000000002
O 359 21.5352 4.850429999999999 20.718800000000005
O 360 3.002410000000001 2.541830000000001 18.867700000000003
O 360 3.002410000000001 2.541830000000001 18.867700000000003
O 363 12.010000000000002 14.414199999999997 20.090300000000003
O 364 15.353399999999997 19.4139 1.8048900000000003
O 364 15.353399999999997 19.4139 1.8048900000000003
O 365 20.8636 1.2302000000000035 17.1692
O 370 9.48509 5.98246 11.282500000000002
O 373 13.187299999999997 14.9545 4.277640000000002
O 373 13.187299999999997 14.9545 4.277640000000002
O 373 13.187299999999997 14.9545 4.277640000000002
O 374 19.339000000000002 6.104279999999999 2.3234700000000004
O 387 4.397680000000001 6.301359999999999 16.06
O 389 16.3034 18.2116 12.132300000000004
O 389 16.3034 18.2116 12.132300000000004
O 392 21.3852 10.0979 5.31542
O 393 17.447800000000004 6.9324200000000005 6.57546
O 394 14.131499999999999 9.596219999999999 21.206599999999998
O 396 7.694779999999998 6.20271 12.764700000000001
O 396 7.694779999999998 6.20271 12.764700000000001
O 406 15.164400000000004 12.559999999999999 2.55734
O 410 21.8503 9.00742 0.7503000000000029
O 411 1.8388899999999992 4.00536 19.8081
O 418 10.615100000000002 11.3051 15.678
O 426 21.6934 6.584199999999999 0.9986000000000033
O 428 1.087299999999999 21.0123 21.6446
O 430 20.6476 12.291999999999998 10.586499999999997
O 433 4.885449999999999 1.7669099999999993 0.6519999999999939
O 439 9.712039999999998 16.675500000000003 6.95195
O 439 9.712039999999998 16.675500000000003 6.95195
O 440 17.207799999999995 19.109600000000004 0.08500000000000085
O 442 16.7441 17.7818 4.480419999999999
O 449 15.662000000000003 11.9678 16.1213
O 451 20.373499999999996 12.2409 8.36551
O 455 9.477990000000002 14.590500000000002 5.118649999999999
O 458 2.4621199999999988 2.388300000000001 16.279500000000002
O 458 2.4621199999999988 2.388300000000001 16.279500000000002
O 464 12.199900000000003 20.2681 8.220310000000001
O 467 19.855499999999996 10.6065 0.0823999999999998
O 471 13.982699999999998 18.596999999999998 8.333940000000002
O 476 11.384000000000004 15.607499999999998 2.7072199999999995
O 477 19.5478 8.340140000000002 1.216000000000001
O 477 19.5478 8.340140000000002 1.216000000000001
O 477 19.5478 8.340140000000002 1.216000000000001
O 478 5.126190000000001 1.8896499999999996 13.877100000000002
O 479 20.7477 8.10962 18.292599999999997
O 479 20.7477 8.10962 18.292599999999997
O 479 20.7477 8.10962 18.292599999999997
O 490 6.46621 4.927250000000001 14.292300000000001
O 491 5.840790000000002 6.376660000000001 18.572599999999998
O 491 5.840790000000002 6.376660000000001 18.572599999999998
O 493 13.874500000000001 16.0624 13.5292
O 493 13.874500000000001 16.0624 13.5292
O 499 15.765199999999997 14.567899999999998 13.9986
O 499 15.765199999999997 14.567899999999998 13.9986
O 502 3.6902299999999997 5.6845099999999995 19.807999999999996
O 503 1.2777999999999992 3.3221999999999987 12.907
O 503 1.2777999999999992 3.3221999999999987 12.907
O 514 21.869400000000002 11.068999999999999 17.258600000000005
O 514 21.869400000000002 11.068999999999999 17.258600000000005
O 518 3.471910000000001 21.8353 20.510499999999997
O 526 19.064200000000003 11.0536 15.442200000000003
O 526 19.064200000000003 11.0536 15.442200000000003
O 529 7.385839999999998 5.564980000000002 17.092299999999998
O 529 7.385839999999998 5.564980000000002 17.092299999999998
O 529 7.385839999999998 5.564980000000002 17.092299999999998
O 530 13.340300000000003 13.2484 18.4049
O 530 13.340300000000003 13.2484 18.4049
O 534 1.7191200000000002 8.231449999999999 10.094399999999997
O 539 11.209999999999997 9.376099999999997 14.384199999999996
O 539 11.209999999999997 9.376099999999997 14.384199999999996
O 543 8.96657 15.205099999999998 16.087999999999997
O 544 11.0348 18.081499999999995 7.903299999999998
O 544 11.0348 18.081499999999995 7.903299999999998
O 544 11.0348 18.081499999999995 7.903299999999998
O 549 7.33802 3.655529999999999 18.9485
O 549 7.33802 3.655529999999999 18.9485
O 555 20.1399 4.511590000000002 0.607999999999997
O 556 7.71378 1.418299999999995 20.262800000000002
O 557 17.8877 16.1709 14.886500000000002
O 562 21.339000000000002 8.08453 20.7304
O 562 21.339000000000002 8.08453 20.7304
O 570 11.627300000000002 15.594600000000003 8.74249
O 571 0.2589000000000041 3.1502599999999994 0.7354999999999947
O 575 0.9084000000000003 4.3368 17.197800000000004
O 575 0.9084000000000003 4.3368 17.197800000000004
O 579 15.902800000000003 14.993399999999998 3.7646300000000004
O 587 12.355300000000003 9.45542 16.507499999999997
O 588 13.9937 14.821200000000001 2.150179999999999
O 588 13.9937 14.821200000000001 2.150179999999999
O 590 19.649000000000004 5.834849999999999 5.881640000000001
O 592 20.2653 9.62029 16.5932
O 592 20.2653 9.62029 16.5932
O 592 20.2653 9.62029 16.5932
O 603 19.5827 9.945609999999999 9.70532
O 606 3.0939200000000007 6.1525 13.563999999999997
O 612 8.10578 21.6127 2.7693200000000004
O 616 17.216799999999996 7.625730000000001 1.9684199999999983
O 619 5.7508300000000006 19.652000000000005 4.207239999999999
O 619 5.7508300000000006 19.652000000000005 4.207239999999999
O 621 2.6733499999999992 2.88823 1.6603999999999992
O 625 10.157900000000001 13.547700000000003 14.724599999999999
O 626 10.950500000000002 12.203700000000001 20.780800000000003
O 627 15.284700000000004 14.532500000000002 16.566300000000002
O 631 20.073399999999996 6.434729999999998 14.2283
O 634 1.2901999999999987 0.372799999999998 19.729199999999995
O 637 21.1097 10.053299999999997 7.764289999999999
O 637 21.1097 10.053299999999997 7.764289999999999
O 637 21.1097 10.053299999999997 7.764289999999999
O 640 11.854800000000001 13.9954 1.2387000000000015
O 644 12.744199999999996 12.671299999999999 3.21678
O 644 12.744199999999996 12.671299999999999 3.21678
O 650 8.62658 8.89283 13.798800000000004
O 653 19.0789 8.69043 14.149400000000004
O 655 2.677489999999999 4.860859999999999 11.5902
O 668 18.478600000000004 20.6942 1.5999300000000005
