6
Lattice="22.0027 0.0 0.0 0.0 22.0027 0.0 0.0 0.0 22.0027"
Si 755 6.2204000000000015 18.067799999999995 11.921499999999998
O 56 5.348330000000001 19.4417 11.762600000000003
O 156 7.2638500000000015 18.094600000000003 10.5866
O 566 6.376830000000002 17.299399999999995 13.3873
O 597 7.547720000000002 19.055600000000002 12.811400000000003
O 670 5.11167 16.860000000000003 11.5033
