12
Lattice="22.0027 0.0 0.0 0.0 22.0027 0.0 0.0 0.0 22.0027"
Si 720 11.9588 2.273060000000001 10.3813
Si 843 14.269000000000002 1.0427999999999997 9.98415
O 174 12.607400000000002 0.8890000000000029 9.25939
O 174 12.607400000000002 0.8890000000000029 9.25939
O 275 14.5534 2.352779999999999 8.996840000000002
O 281 11.635499999999997 2.8968200000000017 11.9419
O 390 12.2863 3.5963899999999995 9.600379999999998
O 398 15.665200000000002 0.7205999999999975 10.872600000000002
O 470 10.412899999999997 1.9325699999999983 9.97577
O 586 13.400099999999998 1.6374600000000008 11.196699999999996
O 586 13.400099999999998 1.6374600000000008 11.196699999999996
O 614 14.565900000000003 21.6296 9.063759999999998
