6
Lattice="22.0027 0.0 0.0 0.0 22.0027 0.0 0.0 0.0 22.0027"
Si 992 9.138830000000002 0.4405000000000001 14.181900000000002
O 6 7.64339 1.2197999999999993 13.378000000000004
O 50 9.74972 1.7085800000000013 13.151100000000003
O 87 8.757760000000001 0.6833999999999989 15.703
O 277 10.849 21.8079 14.5442
O 639 8.964270000000003 21.148100000000003 13.300100000000004
