18
Lattice="22.0027 0.0 0.0 0.0 22.0027 0.0 0.0 0.0 22.0027"
Si 799 18.7621 0.921599999999998 3.6506599999999985
Si 817 19.426599999999997 1.720749999999999 5.9482099999999996
Si 941 18.577299999999997 2.966519999999999 8.25167
O 27 20.645500000000002 0.7628999999999948 6.3517399999999995
O 29 17.1974 0.9129000000000005 2.8661600000000007
O 163 17.5485 2.7989700000000006 9.448699999999999
O 185 18.575099999999996 1.416800000000002 7.530950000000001
O 185 18.575099999999996 1.416800000000002 7.530950000000001
O 253 18.053900000000002 4.35557 7.5607299999999995
O 427 18.078499999999995 1.5633599999999994 5.029299999999999
O 427 18.078499999999995 1.5633599999999994 5.029299999999999
O 436 20.063099999999995 3.0071499999999993 8.85585
O 438 19.259599999999995 0.8903999999999996 1.9799599999999984
O 441 19.527999999999995 3.2459500000000006 6.216730000000002
O 441 19.527999999999995 3.2459500000000006 6.216730000000002
O 528 18.907799999999998 21.356600000000004 3.9922199999999997
O 654 20.1457 1.7203100000000013 4.227630000000001
O 654 20.1457 1.7203100000000013 4.227630000000001
