18
Lattice="22.0027 0.0 0.0 0.0 22.0027 0.0 0.0 0.0 22.0027"
Si 702 15.519099999999998 3.5886299999999984 12.9378
Si 811 16.3952 6.72458 12.4085
Si 974 15.340900000000001 6.289939999999998 10.0729
O 16 15.6279 7.139710000000001 8.724059999999998
O 40 14.792100000000001 6.938390000000002 11.606300000000001
O 40 14.792100000000001 6.938390000000002 11.606300000000001
O 73 16.242300000000004 3.496829999999999 14.462
O 269 16.102099999999997 8.04551 13.363800000000001
O 325 16.5647 2.9061500000000002 11.775099999999998
O 341 16.1097 5.185220000000001 12.7272
O 341 16.1097 5.185220000000001 12.7272
O 346 14.105 3.855080000000001 12.072399999999998
O 401 16.877 6.682480000000002 10.852499999999996
O 401 16.877 6.682480000000002 10.852499999999996
O 560 13.709799999999998 6.01041 9.788320000000002
O 576 18.157 6.628879999999999 12.867999999999999
O 604 15.897700000000004 4.7651900000000005 9.777919999999998
O 641 14.705099999999998 2.0637599999999985 13.288500000000003
