30
Lattice="22.0027 0.0 0.0 0.0 22.0027 0.0 0.0 0.0 22.0027"
Si 698 12.4145 1.0261999999999958 18.3886
Si 752 11.1771 21.986899999999995 0.7653999999999996
Si 870 11.307199999999998 20.6435 19.922
Si 901 11.139799999999997 2.5784599999999998 16.923199999999998
Si 965 13.184000000000001 19.8567 21.620499999999996
O 34 13.9455 1.0084000000000017 17.7347
O 43 12.528899999999997 3.524910000000002 16.670999999999996
O 57 10.2441 0.11760000000000304 20.044900000000002
O 78 12.486 19.0031 0.8634999999999948
O 83 10.4571 20.637000000000004 1.4859000000000009
O 162 11.578799999999998 0.9116 16.918200000000002
O 162 11.578799999999998 0.9116 16.918200000000002
O 205 14.374799999999997 18.6519 21.2959
O 251 9.587720000000001 2.4129600000000018 17.407299999999996
O 265 11.840999999999998 1.416000000000004 21.914999999999996
O 266 12.5271 19.446 20.0423
O 266 12.5271 19.446 20.0423
O 271 9.566039999999997 0.5508999999999986 0.4024999999999963
O 330 10.198699999999999 19.7199 19.229500000000005
O 381 10.775000000000002 2.6903900000000007 15.252100000000002
O 424 12.2244 21.446500000000004 18.760899999999996
O 424 12.2244 21.446500000000004 18.760899999999996
O 487 11.952299999999997 0.3019999999999996 2.1832700000000003
O 504 13.325 1.3484999999999943 19.8832
O 527 11.662400000000002 2.439499999999999 18.588600000000003
O 527 11.662400000000002 2.439499999999999 18.588600000000003
O 536 14.097100000000001 21.1566 0.03949999999999676
O 569 11.748900000000003 20.98 21.5515
O 569 11.748900000000003 20.98 21.5515
O 569 11.748900000000003 20.98 21.5515
