6
Lattice="22.0027 0.0 0.0 0.0 22.0027 0.0 0.0 0.0 22.0027"
Si 992 9.089580000000002 0.5561999999999969 14.250600000000002
O 6 7.589729999999999 1.3817999999999984 13.626700000000003
O 50 9.72091 1.8453499999999998 13.282599999999999
O 87 8.530550000000002 0.6041999999999987 15.788799999999998
O 277 10.727499999999996 21.847399999999997 14.624300000000002
O 639 8.85643 21.2161 13.456199999999999
