18
Lattice="22.0027 0.0 0.0 0.0 22.0027 0.0 0.0 0.0 22.0027"
Si 727 17.938999999999997 15.288599999999999 7.510560000000002
Si 743 17.571 12.7255 8.12351
Si 829 16.0632 10.000899999999998 8.729220000000002
O 20 18.367300000000004 12.422799999999999 9.56888
O 75 19.4006 15.889599999999998 6.98865
O 127 17.142600000000005 15.6311 6.1889199999999995
O 173 16.679400000000005 9.09347 7.5472
O 267 18.161400000000004 12.148900000000001 6.704280000000001
O 290 16.5089 11.494199999999996 8.321639999999999
O 290 16.5089 11.494199999999996 8.321639999999999
O 338 17.5791 16.3546 8.700390000000002
O 391 16.969600000000003 9.4844 10.014599999999998
O 429 14.699000000000002 10.116400000000002 9.566399999999998
O 533 14.638499999999997 10.047299999999996 6.943270000000002
O 565 16.463600000000003 13.948899999999998 7.78472
O 565 16.463600000000003 13.948899999999998 7.78472
O 667 18.7762 14.000499999999999 8.15503
O 667 18.7762 14.000499999999999 8.15503
