6
Lattice="22.0027 0.0 0.0 0.0 22.0027 0.0 0.0 0.0 22.0027"
Si 827 0.17249999999999943 15.5305 8.4433
O 24 0.21539999999999537 16.5114 10.026999999999997
O 55 21.1536 14.514 9.372780000000002
O 96 0.37830000000000297 17.1105 7.886579999999999
O 532 21.3871 15.149800000000003 6.97653
O 645 1.6671900000000015 14.988000000000003 8.47806
