6
Lattice="22.0027 0.0 0.0 0.0 22.0027 0.0 0.0 0.0 22.0027"
Si 802 14.603799999999996 4.28716 20.3235
O 66 15.019899999999996 5.618190000000002 19.383399999999998
O 413 14.159400000000002 3.39818 18.6979
O 480 14.789400000000004 5.1598299999999995 21.720199999999995
O 610 13.156400000000001 3.606439999999999 20.868799999999997
O 666 15.7238 3.093700000000002 20.3501
