18
Lattice="22.0027 0.0 0.0 0.0 22.0027 0.0 0.0 0.0 22.0027"
Si 688 4.780529999999999 12.733099999999997 11.070899999999998
Si 723 2.376999999999999 12.23 10.616499999999998
Si 872 7.256969999999999 12.124599999999997 12.794
O 101 5.721320000000002 11.898500000000002 12.1159
O 101 5.721320000000002 11.898500000000002 12.1159
O 154 8.597919999999998 11.3261 14.130399999999998
O 188 3.4833999999999996 13.305899999999998 9.99558
O 188 3.4833999999999996 13.305899999999998 9.99558
O 194 1.033300000000004 13.013200000000001 11.1298
O 198 5.627459999999999 12.1217 9.734950000000001
O 340 7.892569999999999 10.855799999999999 11.764199999999999
O 454 3.0390300000000003 10.744899999999998 10.776100000000003
O 462 3.214410000000001 12.544700000000002 12.2058
O 462 3.214410000000001 12.544700000000002 12.2058
O 494 5.160709999999998 14.207200000000004 11.477700000000002
O 524 6.5334900000000005 12.8462 14.149800000000003
O 537 7.9771 13.403200000000002 12.203399999999998
O 563 1.8508899999999997 11.895199999999999 9.040400000000002
