72
Lattice="22.0027 0.0 0.0 0.0 22.0027 0.0 0.0 0.0 22.0027"
Si 686 15.592600000000001 18.622199999999996 3.2438399999999987
Si 692 6.168749999999999 16.1427 6.06945
Si 703 10.394400000000001 13.793800000000001 6.36543
Si 714 7.038550000000001 18.551999999999996 4.549379999999999
Si 736 12.471799999999998 14.286599999999996 2.7617699999999985
Si 765 14.4755 15.889199999999999 3.5300399999999996
Si 819 16.6281 20.0682 1.404599999999995
Si 831 11.156700000000004 16.3636 7.3445800000000006
Si 847 6.6752199999999995 20.890199999999997 3.4727999999999994
Si 855 9.31993 18.3541 7.043299999999999
Si 930 13.082200000000004 15.690000000000001 5.805679999999999
Si 983 12.394499999999997 18.7529 7.5244800000000005
O 2 9.915139999999997 19.505299999999995 5.971579999999999
O 19 14.512699999999999 16.6392 5.147400000000001
O 19 14.512699999999999 16.6392 5.147400000000001
O 48 7.264240000000001 15.842200000000002 4.727119999999999
O 67 7.906420000000001 20.090099999999996 4.494150000000001
O 67 7.906420000000001 20.090099999999996 4.494150000000001
O 112 8.66441 19.238900000000005 8.208189999999998
O 116 11.420199999999998 15.124300000000002 6.11279
O 116 11.420199999999998 15.124300000000002 6.11279
O 116 11.420199999999998 15.124300000000002 6.11279
O 125 9.433339999999998 14.064800000000002 7.610980000000001
O 126 11.677400000000002 13.028899999999997 7.148410000000002
O 128 7.483799999999999 15.523100000000003 7.034189999999999
O 136 13.966399999999997 14.738400000000002 6.742509999999999
O 143 5.88186 0.10790000000000077 4.216059999999999
O 167 12.586699999999997 16.992899999999995 6.739799999999999
O 167 12.586699999999997 16.992899999999995 6.739799999999999
O 167 12.586699999999997 16.992899999999995 6.739799999999999
O 170 5.568670000000001 16.924700000000005 7.464880000000001
O 181 7.42474 17.882700000000003 3.05067
O 212 5.749690000000001 17.555200000000003 5.157790000000002
O 212 5.749690000000001 17.555200000000003 5.157790000000002
O 223 16.176400000000005 21.6512 0.8146999999999949
O 229 10.0763 12.430400000000002 5.440459999999998
O 274 6.05922 20.543200000000002 2.0012599999999985
O 285 4.979089999999999 15.093099999999996 5.889890000000001
O 321 16.974099999999996 19.597399999999997 2.9811300000000003
O 321 16.974099999999996 19.597399999999997 2.9811300000000003
O 322 14.751099999999997 17.209099999999996 2.7121199999999988
O 322 14.751099999999997 17.209099999999996 2.7121199999999988
O 350 12.5881 19.365 6.035920000000001
O 351 7.9939399999999985 18.0341 5.8416299999999985
O 351 7.9939399999999985 18.0341 5.8416299999999985
O 353 14.521400000000003 19.2484 4.252369999999999
O 364 15.180499999999999 19.493100000000002 1.8186299999999989
O 364 15.180499999999999 19.493100000000002 1.8186299999999989
O 373 13.0517 15.108499999999996 4.239879999999999
O 373 13.0517 15.108499999999996 4.239879999999999
O 373 13.0517 15.108499999999996 4.239879999999999
O 439 9.6617 16.7219 6.837710000000001
O 439 9.6617 16.7219 6.837710000000001
O 440 17.2345 19.1842 0.23809999999999576
O 442 16.556500000000003 17.7916 4.363720000000001
O 455 9.239920000000001 14.572599999999998 5.2022200000000005
O 464 12.1647 20.2921 8.309000000000001
O 471 13.8751 18.5082 8.21613
O 476 11.395 15.665200000000002 2.6325399999999988
O 544 10.972200000000004 18.105499999999996 7.866430000000001
O 544 10.972200000000004 18.105499999999996 7.866430000000001
O 544 10.972200000000004 18.105499999999996 7.866430000000001
O 570 11.577099999999998 15.720299999999998 8.70075
O 579 15.7897 14.955099999999998 3.7855200000000018
O 588 14.005399999999998 14.822 2.166170000000001
O 588 14.005399999999998 14.822 2.166170000000001
O 612 7.9772099999999995 21.7505 2.795490000000001
O 619 5.773569999999999 19.5889 4.239830000000001
O 619 5.773569999999999 19.5889 4.239830000000001
O 640 11.902599999999996 13.870999999999999 1.1758000000000024
O 644 12.5735 12.7441 3.3927300000000002
O 668 18.319300000000002 20.7989 1.7614300000000007
