132
Lattice="22.0027 0.0 0.0 0.0 22.0027 0.0 0.0 0.0 22.0027"
Si 686 15.722600000000003 18.6803 3.1447399999999988
Si 692 6.304680000000001 16.2897 5.991810000000001
Si 703 10.5806 13.8462 6.13589
Si 714 7.203659999999999 18.549200000000003 4.541730000000001
Si 720 12.188500000000001 2.31869 10.335600000000003
Si 736 12.622699999999998 14.367300000000004 2.695599999999999
Si 765 14.600100000000001 15.961499999999997 3.4370499999999993
Si 799 18.8013 0.8429000000000002 3.572009999999999
Si 801 12.900200000000002 21.6878 8.11354
Si 817 19.388899999999996 1.5752500000000005 5.92512
Si 819 16.861099999999997 20.0635 1.290699999999994
Si 825 12.476499999999998 0.9349999999999952 5.780940000000001
Si 831 11.340500000000002 16.438 7.23366
Si 843 14.517 1.131300000000003 9.766949999999998
Si 847 6.806370000000001 21.008 3.3851699999999987
Si 850 14.407799999999998 11.750699999999998 21.467699999999997
Si 855 9.54787 18.340999999999998 6.97344
Si 918 13.8244 11.6189 2.8164300000000004
Si 930 13.303699999999996 15.7955 5.7107199999999985
Si 941 18.7052 3.0172300000000014 8.09346
Si 970 17.836500000000004 0.7160000000000011 1.1077000000000012
Si 983 12.711900000000004 18.6786 7.52947
O 2 10.070899999999998 19.3077 5.767579999999999
O 19 14.6476 16.639600000000005 5.0779700000000005
O 19 14.6476 16.639600000000005 5.0779700000000005
O 27 20.7375 0.7304999999999993 6.395060000000001
O 29 17.2741 0.842800000000004 2.779889999999998
O 29 17.2741 0.842800000000004 2.779889999999998
O 31 13.462700000000002 12.069100000000002 20.2007
O 33 16.036999999999995 11.700599999999998 21.920599999999997
O 37 14.571000000000002 13.476699999999997 21.881199999999996
O 48 7.43075 16.0568 4.572150000000001
O 67 7.90005 20.0872 4.5521899999999995
O 67 7.90005 20.0872 4.5521899999999995
O 112 8.826809999999998 19.240399999999998 8.13183
O 116 11.617499999999996 15.3291 5.966570000000001
O 116 11.617499999999996 15.3291 5.966570000000001
O 116 11.617499999999996 15.3291 5.966570000000001
O 125 9.646730000000002 13.9768 7.49033
O 126 11.956300000000002 13.032700000000002 6.763629999999999
O 128 7.700230000000001 15.491400000000002 6.77056
O 132 12.896599999999996 10.176800000000004 2.6981
O 136 14.1645 14.7972 6.67886
O 143 6.12603 0.3877000000000024 4.062470000000001
O 163 17.5622 2.8004099999999994 9.264950000000002
O 167 12.821099999999998 16.993799999999997 6.7916799999999995
O 167 12.821099999999998 16.993799999999997 6.7916799999999995
O 167 12.821099999999998 16.993799999999997 6.7916799999999995
O 170 5.775790000000001 16.9924 7.378540000000001
O 174 12.8184 0.897199999999998 9.262330000000002
O 174 12.8184 0.897199999999998 9.262330000000002
O 174 12.8184 0.897199999999998 9.262330000000002
O 181 7.6090599999999995 17.9545 3.0404400000000003
O 185 18.581599999999998 1.396499999999996 7.43187
O 185 18.581599999999998 1.396499999999996 7.43187
O 212 5.880330000000001 17.762599999999996 5.076450000000001
O 212 5.880330000000001 17.762599999999996 5.076450000000001
O 217 13.3447 11.436699999999998 0.7927000000000035
O 217 13.3447 11.436699999999998 0.7927000000000035
O 223 16.5774 21.673199999999998 0.6933000000000007
O 223 16.5774 21.673199999999998 0.6933000000000007
O 229 10.063800000000004 12.3706 5.48302
O 253 18.1773 4.468019999999999 7.52741
O 274 6.17371 20.6414 1.8750900000000001
O 275 14.798400000000004 2.29739 8.729510000000001
O 281 11.764199999999999 2.83925 11.8552
O 285 5.2135500000000015 15.126099999999997 5.853999999999999
O 319 14.442899999999998 11.141000000000002 4.26934
O 321 17.2129 19.602099999999997 2.8699200000000005
O 321 17.2129 19.602099999999997 2.8699200000000005
O 322 14.758700000000001 17.373899999999995 2.684429999999999
O 322 14.758700000000001 17.373899999999995 2.684429999999999
O 350 12.8218 19.3242 5.95917
O 351 8.05527 17.9945 5.8993199999999995
O 351 8.05527 17.9945 5.8993199999999995
O 353 14.693900000000003 19.2863 4.279530000000001
O 364 15.3443 19.633799999999997 1.8020700000000005
O 364 15.3443 19.633799999999997 1.8020700000000005
O 369 13.371799999999997 2.2466399999999993 6.4465
O 373 13.316199999999998 15.039800000000003 4.17483
O 373 13.316199999999998 15.039800000000003 4.17483
O 373 13.316199999999998 15.039800000000003 4.17483
O 377 12.977099999999997 0.1559999999999988 4.45439
O 390 12.412299999999998 3.8428199999999997 9.68533
O 394 14.4042 10.069500000000001 20.975399999999997
O 398 15.994699999999998 0.8115000000000023 10.6482
O 406 15.064800000000002 12.538500000000003 2.2797400000000003
O 415 11.6615 0.29700000000000415 7.061589999999999
O 415 11.6615 0.29700000000000415 7.061589999999999
O 427 18.117899999999995 1.2820000000000036 5.014050000000001
O 427 18.117899999999995 1.2820000000000036 5.014050000000001
O 436 20.083900000000003 3.044319999999999 8.854780000000002
O 438 19.304 0.8151999999999973 2.018419999999999
O 438 19.304 0.8151999999999973 2.018419999999999
O 439 9.79854 16.697800000000004 6.774440000000002
O 439 9.79854 16.697800000000004 6.774440000000002
O 440 17.234799999999996 19.1649 0.037700000000000955
O 441 19.543499999999998 3.122980000000002 6.2868400000000015
O 441 19.543499999999998 3.122980000000002 6.2868400000000015
O 442 16.7469 17.639 4.162089999999999
O 455 9.427800000000001 14.596300000000003 5.169979999999999
O 464 12.5583 20.1486 8.29253
O 464 12.5583 20.1486 8.29253
O 470 10.708699999999997 2.0589399999999998 9.662670000000002
O 471 14.2182 18.4665 8.14368
O 476 11.5046 15.6345 2.723700000000001
O 484 17.250199999999996 2.2078099999999985 0.7043999999999997
O 508 13.848299999999998 21.8785 6.736419999999999
O 508 13.848299999999998 21.8785 6.736419999999999
O 528 19.095299999999998 21.250000000000004 4.081109999999999
O 544 11.108300000000003 18.1816 7.653410000000001
O 544 11.108300000000003 18.1816 7.653410000000001
O 544 11.108300000000003 18.1816 7.653410000000001
O 570 11.650000000000002 15.616299999999999 8.543679999999998
O 577 11.337900000000001 1.8055500000000002 5.019189999999998
O 579 15.9815 15.147200000000002 3.66076
O 586 13.652599999999996 1.7871500000000005 11.097200000000004
O 586 13.652599999999996 1.7871500000000005 11.097200000000004
O 588 14.133399999999998 14.897299999999998 2.080400000000001
O 588 14.133399999999998 14.897299999999998 2.080400000000001
O 612 8.14463 21.6431 2.7740399999999994
O 614 14.752100000000002 21.642600000000005 9.07574
O 614 14.752100000000002 21.642600000000005 9.07574
O 619 5.701509999999999 19.793899999999997 3.97025
O 619 5.701509999999999 19.793899999999997 3.97025
O 640 11.967299999999998 14.018800000000002 1.2136999999999958
O 644 12.756000000000004 12.828099999999996 3.222190000000001
O 644 12.756000000000004 12.828099999999996 3.222190000000001
O 654 20.126 1.7697000000000003 4.187940000000001
O 654 20.126 1.7697000000000003 4.187940000000001
O 659 18.832200000000004 0.2376999999999967 21.7501
O 668 18.6662 20.570600000000002 1.6011099999999985
