6
Lattice="22.0027 0.0 0.0 0.0 22.0027 0.0 0.0 0.0 22.0027"
Si 705 21.4903 15.982499999999998 13.102099999999997
O 74 20.6579 16.7711 14.262600000000003
O 301 21.7124 14.6861 11.831500000000002
O 324 0.830999999999996 16.851000000000003 13.004700000000003
O 422 0.19769999999999754 14.657100000000003 14.413500000000003
O 425 20.3586 16.437500000000004 11.935300000000002
