12
Lattice="23.5669 0.0 0.0 0.0 23.5669 0.0 0.0 0.0 23.5669"
Si 927 11.794599999999999 15.598000000000003 2.079629999999998
Si 944 11.827699999999997 15.250000000000004 4.608509999999999
O 105 12.6281 13.593099999999996 5.44181
O 184 13.299800000000001 15.794799999999999 1.5531299999999995
O 291 13.113200000000003 16.0688 5.1231100000000005
O 309 10.928999999999998 14.491400000000002 1.1843900000000005
O 333 11.160599999999999 16.2445 3.50469
O 333 11.160599999999999 16.2445 3.50469
O 482 11.157700000000002 16.9391 1.2709399999999995
O 498 10.4911 14.831300000000002 5.3361100000000015
O 617 12.302800000000001 14.343 3.2672099999999986
O 617 12.302800000000001 14.343 3.2672099999999986
