6
Lattice="23.5669 0.0 0.0 0.0 23.5669 0.0 0.0 0.0 23.5669"
Si 927 11.0795 15.806500000000003 2.328669999999999
O 184 12.690299999999997 16.002100000000002 1.89011
O 309 10.369000000000003 14.675 1.2509300000000003
O 333 10.472600000000003 16.487399999999997 3.7057800000000007
O 482 10.548400000000004 17.1517 1.4447100000000006
O 617 11.575799999999997 14.4682 3.476749999999999
