6
Lattice="21.385 0.0 0.0 0.0 21.385 0.0 0.0 0.0 21.385"
Si 798 9.789550000000002 2.987169999999999 8.53592
O 53 8.142 2.5748399999999982 9.19306
O 73 9.304829999999999 2.8909699999999994 6.9833099999999995
O 120 9.46828 4.551570000000002 8.971059999999998
O 242 11.4241 3.1917700000000018 8.24974
O 595 10.061 1.3407999999999944 9.112170000000003
