6
Lattice="21.385 0.0 0.0 0.0 21.385 0.0 0.0 0.0 21.385"
Si 798 9.668040000000001 2.953800000000001 8.466750000000001
O 53 7.955390000000001 2.457069999999998 9.02852
O 73 9.245999999999999 2.8760499999999993 6.90175
O 120 9.30529 4.49145 8.909760000000002
O 242 11.336000000000002 3.1050299999999993 8.33016
O 595 9.931709999999999 1.3466999999999985 9.145689999999998
