12
Lattice="21.385 0.0 0.0 0.0 21.385 0.0 0.0 0.0 21.385"
Si 709 12.899800000000003 17.955000000000002 5.497779999999999
Si 1001 10.180600000000002 18.2097 3.8570600000000006
O 61 10.827299999999997 17.489700000000003 2.479050000000001
O 115 11.823399999999996 17.6688 7.11497
O 286 13.943299999999997 17.7844 4.148620000000001
O 307 12.662000000000003 16.3077 5.392680000000002
O 383 11.696500000000004 18.9299 4.6081
O 383 11.696500000000004 18.9299 4.6081
O 389 10.195 16.934299999999997 4.716899999999999
O 497 9.3368 19.402800000000003 4.6558600000000006
O 519 8.53277 18.1579 3.0242199999999997
O 632 14.062699999999996 18.281700000000004 6.546130000000002
