6
Lattice="21.385 0.0 0.0 0.0 21.385 0.0 0.0 0.0 21.385"
Si 709 12.6589 18.011100000000003 5.586859999999998
O 115 11.6155 17.745300000000004 7.05161
O 286 13.782999999999998 17.9502 4.257169999999999
O 307 12.570600000000002 16.301199999999998 5.47072
O 383 11.589900000000004 19.0271 4.683779999999999
O 632 13.8586 18.2777 6.662769999999998
