6
Lattice="21.385 0.0 0.0 0.0 21.385 0.0 0.0 0.0 21.385"
Si 798 9.599340000000002 2.977689999999999 8.638920000000002
O 53 7.95542 2.5822499999999984 9.16639
O 73 9.15539 2.910450000000001 7.06223
O 120 9.39865 4.521159999999998 9.032120000000003
O 242 11.236700000000003 3.0576100000000004 8.32075
O 595 9.82535 1.2939000000000007 9.09234
