774
Lattice="21.385 0.0 0.0 0.0 21.385 0.0 0.0 0.0 21.385"
Si 672 0.37879999999999825 5.489349999999998 16.9136
Si 673 19.9886 19.7623 7.648910000000001
Si 674 16.667199999999998 3.6832400000000014 5.5595099999999995
Si 680 16.8173 1.6288999999999945 12.9729
Si 687 15.845099999999999 20.493399999999998 11.1463
Si 690 3.0746 10.870499999999996 15.268599999999996
Si 691 0.4654999999999987 9.30723 7.818809999999999
Si 698 4.165099999999999 0.7376999999999967 12.212
Si 699 11.297100000000004 15.4509 10.6176
Si 706 20.9256 7.669609999999999 13.8706
Si 707 8.113690000000002 17.2869 8.376630000000002
Si 713 17.007700000000003 17.870700000000003 3.007760000000001
Si 715 8.729659999999999 12.627399999999998 8.721070000000001
Si 716 16.244599999999995 0.9373999999999967 6.26831
Si 724 5.594950000000001 8.18452 18.810400000000005
Si 731 13.366299999999999 9.90842 8.50486
Si 732 14.372899999999998 11.232400000000002 4.399820000000002
Si 734 2.649899999999999 15.403899999999997 10.721999999999998
Si 737 19.3224 7.833189999999998 11.822300000000002
Si 739 7.858319999999999 20.539400000000004 0.23939999999999628
Si 740 1.2135999999999996 8.45797 16.2666
Si 743 9.363220000000002 11.736900000000002 2.1960900000000017
Si 744 1.747099999999996 19.143800000000002 19.4642
Si 747 3.8930299999999995 13.0016 5.965790000000002
Si 749 12.041900000000002 3.78463 11.499799999999997
Si 750 12.632099999999998 6.776589999999999 12.7863
Si 751 9.21613 6.749130000000001 0.3767999999999958
Si 753 11.343500000000002 18.9766 18.014600000000005
Si 754 3.666990000000002 2.3791200000000003 7.0754100000000015
Si 759 20.0701 20.7777 0.6000999999999976
Si 761 10.894000000000002 12.967600000000001 3.8372899999999994
Si 765 7.7793600000000005 15.003400000000003 18.3466
Si 766 16.7668 20.6142 13.860299999999999
Si 776 3.4163700000000006 19.309699999999996 3.0258900000000004
Si 787 9.83905 3.1770299999999985 3.2607099999999996
Si 789 13.666100000000004 5.759330000000002 1.5911999999999935
Si 790 20.6559 21.0545 10.372800000000002
Si 796 11.847200000000004 8.360139999999998 1.0093999999999994
Si 797 11.166 6.81587 17.6078
Si 799 11.3736 0.6452999999999989 18.45
Si 800 10.803500000000003 18.0033 9.999860000000002
Si 801 4.081030000000002 20.989099999999997 1.5322999999999993
Si 802 7.404419999999998 3.864349999999998 13.961000000000002
Si 805 14.0699 2.5703299999999984 14.456
Si 806 17.9689 0.8342000000000027 1.6296000000000035
Si 807 4.212109999999999 11.268899999999999 4.11523
Si 809 2.6396200000000007 18.1405 9.360980000000001
Si 810 17.4064 15.023500000000002 17.1619
Si 813 1.5230999999999995 17.4331 13.880700000000001
Si 814 6.943819999999999 13.337099999999996 6.613400000000002
Si 817 11.869800000000001 0.8990999999999971 20.7773
Si 819 9.169430000000002 19.1716 16.532100000000003
Si 820 14.4802 19.3976 14.880399999999998
Si 823 15.691199999999998 7.20815 1.609499999999997
Si 825 5.30809 0.7190000000000012 20.5603
Si 828 12.118399999999998 9.10791 16.6422
Si 829 8.99917 8.843219999999999 1.663800000000002
Si 831 4.089870000000001 14.467600000000001 0.42540000000000333
Si 833 9.70156 12.861300000000004 17.446100000000005
Si 837 15.4571 9.49702 19.602300000000003
Si 841 13.720200000000002 9.219249999999999 2.9978900000000017
Si 842 21.192600000000002 6.477529999999998 10.6816
Si 846 2.772639999999999 12.495000000000001 18.139600000000005
Si 847 20.865600000000004 19.287700000000005 18.030400000000004
Si 850 7.097149999999999 11.047700000000003 14.3766
Si 853 15.626499999999997 4.125720000000001 12.803
Si 854 7.0808 1.4042999999999992 12.163299999999996
Si 855 2.1661800000000007 16.921700000000005 0.20069999999999766
Si 858 6.066099999999999 8.548660000000002 13.008399999999998
Si 859 9.88072 17.9933 12.355099999999997
Si 868 5.966840000000001 1.8668799999999983 5.8996400000000015
Si 869 3.5153399999999984 13.903899999999997 8.74702
Si 870 3.8987599999999993 19.276299999999996 13.051999999999996
Si 873 10.903499999999998 8.164280000000002 4.029509999999998
Si 876 3.3834100000000014 1.3318999999999974 18.789599999999997
Si 878 19.1097 4.0613600000000005 16.6608
Si 881 13.391299999999998 6.822399999999998 15.316800000000004
Si 882 13.189600000000002 15.386300000000002 14.9941
Si 888 13.458500000000004 12.627100000000002 6.819649999999999
Si 890 8.907050000000002 19.907799999999998 9.67915
Si 897 20.456 12.6994 14.282900000000001
Si 899 7.29233 14.022400000000001 15.366499999999998
Si 901 3.5267799999999987 2.5055200000000006 10.407900000000001
Si 902 8.69869 0.2863999999999933 18.952500000000004
Si 903 13.322 11.116299999999999 18.3773
Si 907 17.866599999999995 4.380030000000001 14.418699999999998
Si 909 8.220949999999998 7.640599999999999 17.3421
Si 910 15.9252 16.665700000000005 18.4372
Si 913 1.6116000000000028 0.021899999999995146 17.320600000000002
Si 920 2.8009999999999984 7.60877 6.68357
Si 921 2.5837600000000016 7.1340499999999984 18.0784
Si 922 17.0725 3.709710000000001 2.36196
Si 926 17.7781 13.467499999999998 14.570200000000003
Si 927 0.6617999999999995 11.2163 10.281499999999998
Si 928 16.070799999999995 20.7163 3.682079999999999
Si 930 6.253989999999998 14.321500000000004 20.379
Si 931 4.74859 5.744780000000002 18.671499999999998
Si 933 12.7837 17.941099999999995 13.399400000000004
Si 938 18.0376 19.155199999999997 21.3727
Si 940 16.2544 10.5156 17.2865
Si 941 11.3122 2.07911 1.583599999999997
Si 944 1.5028999999999968 9.80949 13.1829
Si 947 3.7124799999999993 18.2238 15.7651
Si 950 12.897099999999998 5.9665099999999995 10.395199999999999
Si 951 9.53612 10.161199999999997 15.931000000000001
Si 953 1.719299999999997 2.293710000000001 5.453250000000001
Si 956 20.7092 4.3063199999999995 4.9019200000000005
Si 957 3.3651000000000018 9.961470000000002 18.3772
Si 961 18.1975 6.524699999999999 16.8976
Si 962 7.62668 6.012820000000001 19.204200000000004
Si 963 12.7411 12.781200000000002 15.604600000000001
Si 967 10.526500000000002 10.870700000000003 9.048019999999998
Si 968 3.0108999999999995 5.485969999999998 8.276340000000001
Si 971 11.010300000000004 4.1009899999999995 21.2144
Si 972 16.705900000000003 19.1814 16.8413
Si 975 18.511 2.0928299999999993 4.092639999999999
Si 976 1.8353600000000014 8.885380000000001 10.766200000000001
Si 979 9.800549999999998 2.61927 12.4331
Si 980 10.673400000000004 13.918200000000002 7.862559999999998
Si 984 5.600670000000001 10.958200000000001 12.1217
Si 986 14.456 18.7531 17.883799999999997
Si 987 14.159499999999998 1.894169999999999 2.980920000000001
Si 990 17.539999999999996 0.1681999999999988 16.113199999999996
Si 992 1.5242000000000004 0.1220999999999961 7.565740000000002
Si 995 14.916 2.972909999999999 0.8498999999999981
Si 1002 19.958100000000005 9.06025 16.4303
Si 1005 9.036649999999998 16.619199999999996 14.8492
Si 1006 2.229700000000001 4.11665 18.244000000000003
Si 1007 11.519499999999997 8.10156 8.86354
O 0 4.647680000000001 7.9023900000000005 13.4969
O 1 15.1005 18.7944 16.2995
O 1 15.1005 18.7944 16.2995
O 1 15.1005 18.7944 16.2995
O 2 2.58089 18.027000000000005 20.4017
O 2 2.58089 18.027000000000005 20.4017
O 6 0.3506 1.3021999999999991 5.50273
O 7 3.39987 9.81156 3.8785300000000014
O 8 15.786400000000004 15.751499999999997 19.724999999999998
O 9 18.4128 3.238430000000001 15.357000000000003
O 9 18.4128 3.238430000000001 15.357000000000003
O 12 19.745899999999995 3.0719299999999983 4.394479999999998
O 12 19.745899999999995 3.0719299999999983 4.394479999999998
O 13 11.415400000000002 7.7951000000000015 12.939600000000002
O 15 7.97758 18.866000000000003 0.6007999999999996
O 16 8.40334 6.24756 1.682699999999997
O 17 14.125600000000002 8.72767 4.46876
O 19 7.69172 15.3216 20.0633
O 19 7.69172 15.3216 20.0633
O 20 10.970900000000004 11.799899999999997 2.5404300000000006
O 20 10.970900000000004 11.799899999999997 2.5404300000000006
O 23 16.8471 7.728280000000002 0.5823999999999998
O 25 9.179190000000002 19.2657 13.0902
O 26 15.372600000000002 11.515800000000002 16.319
O 27 13.065099999999997 21.182199999999998 20.7908
O 28 12.7161 4.350089999999998 9.97286
O 28 12.7161 4.350089999999998 9.97286
O 29 9.911080000000002 0.36139999999999617 17.8075
O 29 9.911080000000002 0.36139999999999617 17.8075
O 30 2.35754 7.804289999999998 4.958760000000002
O 31 6.757960000000001 10.118199999999998 13.1005
O 31 6.757960000000001 10.118199999999998 13.1005
O 31 6.757960000000001 10.118199999999998 13.1005
O 32 17.530999999999995 11.5151 17.390800000000002
O 33 8.614540000000002 10.637000000000004 14.701399999999996
O 33 8.614540000000002 10.637000000000004 14.701399999999996
O 34 6.642030000000002 0.8714000000000013 10.6891
O 35 19.207799999999995 9.44012 17.8629
O 37 7.309169999999998 12.684699999999996 14.403499999999998
O 37 7.309169999999998 12.684699999999996 14.403499999999998
O 38 4.087489999999999 7.323139999999999 18.7942
O 38 4.087489999999999 7.323139999999999 18.7942
O 38 4.087489999999999 7.323139999999999 18.7942
O 39 16.743 9.472629999999999 18.477999999999998
O 39 16.743 9.472629999999999 18.477999999999998
O 41 18.0793 2.3306900000000006 2.4815499999999986
O 41 18.0793 2.3306900000000006 2.4815499999999986
O 41 18.0793 2.3306900000000006 2.4815499999999986
O 42 10.1294 15.665200000000002 15.520900000000001
O 43 4.989940000000001 3.2593999999999994 10.345400000000001
O 47 11.608799999999999 17.316999999999997 18.328599999999998
O 50 2.0886999999999993 1.5801999999999978 6.872019999999999
O 50 2.0886999999999993 1.5801999999999978 6.872019999999999
O 50 2.0886999999999993 1.5801999999999978 6.872019999999999
O 51 8.28517 5.977499999999999 20.599999999999998
O 51 8.28517 5.977499999999999 20.599999999999998
O 54 11.9956 10.397099999999998 19.5162
O 57 2.8880599999999994 0.44299999999999784 13.151900000000001
O 58 7.8832699999999996 5.978200000000001 17.587
O 58 7.8832699999999996 5.978200000000001 17.587
O 59 1.1120000000000019 19.9378 20.759400000000003
O 60 4.124980000000001 15.224999999999998 8.006049999999998
O 62 17.058600000000002 18.8409 1.2528000000000006
O 62 17.058600000000002 18.8409 1.2528000000000006
O 65 1.0602000000000018 7.477419999999999 10.4174
O 65 1.0602000000000018 7.477419999999999 10.4174
O 66 7.672969999999999 5.179020000000001 13.114700000000003
O 67 0.4649000000000001 18.1354 18.9609
O 67 0.4649000000000001 18.1354 18.9609
O 68 18.8871 5.0472 13.235299999999999
O 69 20.7859 1.2409000000000034 10.848400000000002
O 72 6.887930000000001 7.444990000000001 12.325199999999999
O 76 16.1782 18.263099999999998 18.138300000000005
O 76 16.1782 18.263099999999998 18.138300000000005
O 76 16.1782 18.263099999999998 18.138300000000005
O 77 16.7736 12.3143 13.861099999999997
O 78 5.279060000000001 17.884599999999995 15.834300000000002
O 79 14.604800000000001 20.015400000000003 18.8246
O 82 20.6675 0.38470000000000226 20.907699999999995
O 83 3.5749299999999984 19.4631 16.8135
O 84 15.340999999999998 4.5961099999999995 5.594269999999998
O 87 0.8159999999999954 0.6913999999999945 8.979600000000001
O 88 2.8787899999999986 17.173199999999998 16.716600000000003
O 89 12.4284 5.362770000000001 11.952299999999997
O 89 12.4284 5.362770000000001 11.952299999999997
O 89 12.4284 5.362770000000001 11.952299999999997
O 91 16.7486 16.9933 4.375989999999998
O 92 17.658199999999997 19.807099999999995 19.9421
O 93 8.07413 16.1273 9.534879999999998
O 95 19.706599999999998 19.187699999999996 0.14099999999999824
O 95 19.706599999999998 19.187699999999996 0.14099999999999824
O 97 12.574200000000001 6.83775 0.7769999999999939
O 97 12.574200000000001 6.83775 0.7769999999999939
O 99 7.982060000000001 21.161000000000005 8.782889999999998
O 100 18.990600000000004 13.7771 13.277400000000004
O 100 18.990600000000004 13.7771 13.277400000000004
O 102 2.9104300000000016 3.490970000000001 6.051120000000001
O 102 2.9104300000000016 3.490970000000001 6.051120000000001
O 105 2.1990300000000005 8.58598 12.406299999999998
O 105 2.1990300000000005 8.58598 12.406299999999998
O 106 13.672500000000003 9.42278 6.963059999999999
O 108 11.389399999999998 18.4297 12.844399999999997
O 108 11.389399999999998 18.4297 12.844399999999997
O 110 16.295800000000003 9.950990000000001 20.968099999999996
O 111 9.877590000000001 8.46593 9.26801
O 112 1.2077999999999989 17.930600000000002 1.161999999999999
O 113 12.511799999999997 13.420100000000001 3.470649999999999
O 114 15.533800000000003 2.8850599999999993 2.4371699999999983
O 114 15.533800000000003 2.8850599999999993 2.4371699999999983
O 114 15.533800000000003 2.8850599999999993 2.4371699999999983
O 116 4.63888 13.351299999999998 20.6716
O 116 4.63888 13.351299999999998 20.6716
O 118 17.1805 0.7526999999999973 14.515899999999998
O 118 17.1805 0.7526999999999973 14.515899999999998
O 118 17.1805 0.7526999999999973 14.515899999999998
O 119 14.643000000000004 2.8039200000000015 20.6215
O 121 3.247489999999999 9.269639999999999 10.2107
O 122 14.438599999999997 6.102319999999999 9.74951
O 123 10.369600000000002 8.95503 15.011100000000003
O 124 14.9616 6.01399 2.5472199999999994
O 124 14.9616 6.01399 2.5472199999999994
O 125 2.7367300000000014 13.3139 0.505599999999994
O 129 19.4417 9.965869999999999 15.1386
O 130 10.4769 1.1155999999999935 12.822399999999998
O 132 6.450990000000001 8.082710000000002 17.338200000000004
O 132 6.450990000000001 8.082710000000002 17.338200000000004
O 133 20.1579 11.4453 13.287699999999997
O 136 6.9655999999999985 12.875800000000002 20.566999999999997
O 137 14.112399999999997 2.627559999999999 4.470790000000001
O 138 8.186890000000002 7.899609999999999 18.991699999999998
O 138 8.186890000000002 7.899609999999999 18.991699999999998
O 139 20.5755 8.22956 8.34514
O 140 19.697800000000004 7.113610000000001 10.334700000000002
O 140 19.697800000000004 7.113610000000001 10.334700000000002
O 142 14.711400000000001 0.8125999999999962 10.971599999999999
O 143 20.0031 20.6005 18.558600000000002
O 145 16.568699999999996 9.33222 16.1654
O 148 11.6583 8.200669999999999 20.725399999999997
O 149 4.7842400000000005 4.693850000000001 19.8727
O 150 21.143000000000004 8.034510000000001 15.444800000000004
O 150 21.143000000000004 8.034510000000001 15.444800000000004
O 150 21.143000000000004 8.034510000000001 15.444800000000004
O 151 3.0305399999999985 2.7584300000000006 17.9588
O 151 3.0305399999999985 2.7584300000000006 17.9588
O 153 10.506899999999998 3.503 11.224799999999998
O 153 10.506899999999998 3.503 11.224799999999998
O 154 1.3462000000000032 10.686200000000003 7.204360000000001
O 155 19.443699999999996 20.422100000000004 11.322199999999999
O 157 14.8167 0.41029999999999944 3.530619999999999
O 157 14.8167 0.41029999999999944 3.530619999999999
O 159 6.144670000000001 6.548289999999998 19.233999999999998
O 159 6.144670000000001 6.548289999999998 19.233999999999998
O 159 6.144670000000001 6.548289999999998 19.233999999999998
O 161 12.613400000000002 2.24531 11.5519
O 162 3.907969999999999 0.7105999999999995 10.4804
O 162 3.907969999999999 0.7105999999999995 10.4804
O 163 10.0332 1.7097999999999942 2.52477
O 163 10.0332 1.7097999999999942 2.52477
O 167 5.508779999999998 15.328099999999996 0.03989999999999583
O 167 5.508779999999998 15.328099999999996 0.03989999999999583
O 168 2.9356399999999994 7.201809999999998 8.26597
O 168 2.9356399999999994 7.201809999999998 8.26597
O 169 21.379700000000003 20.294 1.6583999999999932
O 173 10.2697 7.850899999999999 1.1968000000000032
O 173 10.2697 7.850899999999999 1.1968000000000032
O 173 10.2697 7.850899999999999 1.1968000000000032
O 174 5.2281200000000005 0.4614999999999938 2.3648500000000006
O 175 2.939219999999999 5.1213000000000015 9.872780000000002
O 176 10.9132 14.013200000000001 17.253800000000002
O 177 5.548970000000001 5.25498 17.285500000000003
O 178 3.9893099999999997 18.128599999999995 8.245520000000003
O 179 1.4387999999999934 6.844290000000001 16.7452
O 179 1.4387999999999934 6.844290000000001 16.7452
O 179 1.4387999999999934 6.844290000000001 16.7452
O 180 2.4950100000000006 9.521060000000002 19.7829
O 182 6.165679999999998 8.69414 20.244699999999998
O 184 1.9216300000000004 11.8687 9.372679999999999
O 185 11.2473 0.4579000000000022 0.9408999999999992
O 185 11.2473 0.4579000000000022 0.9408999999999992
O 187 19.4988 5.44941 4.666990000000002
O 190 15.926800000000004 5.636369999999999 12.4053
O 192 3.7480100000000007 20.7216 3.967670000000002
O 193 16.399599999999996 4.104499999999998 0.6480000000000032
O 193 16.399599999999996 4.104499999999998 0.6480000000000032
O 194 15.479299999999999 10.820600000000002 5.493199999999998
O 196 19.2809 0.1751999999999967 9.099610000000002
O 201 8.44049 16.853200000000005 6.854150000000001
O 202 3.5684000000000005 14.098299999999998 10.4146
O 202 3.5684000000000005 14.098299999999998 10.4146
O 203 4.583380000000002 5.1497199999999985 8.035979999999999
O 204 6.347170000000002 17.3591 7.991409999999998
O 205 7.428619999999999 17.376700000000003 14.530400000000004
O 210 13.5337 11.529100000000003 8.13193
O 210 13.5337 11.529100000000003 8.13193
O 211 19.6003 2.6917100000000005 17.485000000000003
O 213 0.8924999999999983 16.088200000000004 14.625199999999996
O 214 7.300729999999998 12.226099999999999 7.802310000000002
O 214 7.300729999999998 12.226099999999999 7.802310000000002
O 215 10.415299999999998 12.1187 18.779500000000002
O 216 8.951530000000002 21.0647 10.854600000000001
O 217 6.605090000000001 10.489 15.979200000000002
O 218 11.615600000000004 6.784859999999998 9.837880000000002
O 218 11.615600000000004 6.784859999999998 9.837880000000002
O 219 3.2828100000000013 0.28020000000000067 17.3978
O 219 3.2828100000000013 0.28020000000000067 17.3978
O 220 13.3015 11.954800000000002 14.237600000000004
O 222 8.648590000000002 20.403300000000005 20.0358
O 222 8.648590000000002 20.403300000000005 20.0358
O 223 8.82892 20.666699999999995 15.904799999999998
O 225 0.8631999999999991 3.584430000000001 5.1142
O 225 0.8631999999999991 3.584430000000001 5.1142
O 228 10.853100000000001 10.777199999999997 10.698399999999996
O 229 3.72616 11.505399999999998 19.0778
O 229 3.72616 11.505399999999998 19.0778
O 231 12.553900000000002 5.593640000000001 2.853719999999999
O 232 3.72832 11.772000000000002 2.641449999999999
O 234 4.910119999999999 9.50816 18.1054
O 234 4.910119999999999 9.50816 18.1054
O 235 1.551399999999994 4.7721599999999995 7.705120000000001
O 238 10.3717 12.6155 8.95019
O 238 10.3717 12.6155 8.95019
O 238 10.3717 12.6155 8.95019
O 239 17.2719 0.3784999999999954 7.465150000000001
O 240 0.3282000000000025 0.8877999999999986 17.161999999999995
O 243 15.339499999999997 19.572300000000002 2.738389999999999
O 244 2.997160000000001 16.683899999999998 9.817809999999998
O 244 2.997160000000001 16.683899999999998 9.817809999999998
O 245 8.228089999999998 1.7469000000000037 19.3593
O 248 15.5583 17.328099999999996 2.26023
O 249 11.311800000000002 3.6438200000000016 13.276100000000003
O 249 11.311800000000002 3.6438200000000016 13.276100000000003
O 250 12.1583 5.949590000000001 14.313300000000002
O 250 12.1583 5.949590000000001 14.313300000000002
O 251 1.8964700000000008 2.540700000000001 10.604600000000001
O 252 3.157440000000001 19.4573 10.104
O 253 10.6085 3.664559999999998 1.472299999999997
O 253 10.6085 3.664559999999998 1.472299999999997
O 253 10.6085 3.664559999999998 1.472299999999997
O 254 7.616609999999998 13.062299999999997 5.2063500000000005
O 255 4.149709999999999 11.776700000000002 11.560100000000002
O 258 9.53735 18.8171 10.764
O 258 9.53735 18.8171 10.764
O 258 9.53735 18.8171 10.764
O 259 8.540609999999997 2.04823 11.382700000000003
O 259 8.540609999999997 2.04823 11.382700000000003
O 260 4.970749999999999 12.837399999999999 9.156400000000001
O 262 16.6125 20.6283 9.74268
O 264 5.1828199999999995 3.00676 6.744
O 264 5.1828199999999995 3.00676 6.744
O 266 5.170860000000001 18.3377 12.998999999999999
O 267 9.542159999999999 10.287600000000001 1.3493999999999957
O 267 9.542159999999999 10.287600000000001 1.3493999999999957
O 268 10.4784 16.7846 11.1848
O 268 10.4784 16.7846 11.1848
O 268 10.4784 16.7846 11.1848
O 271 1.9925299999999986 21.0684 15.614499999999996
O 272 1.674199999999999 4.363849999999999 16.5247
O 272 1.674199999999999 4.363849999999999 16.5247
O 274 20.688999999999997 19.3989 16.4083
O 276 15.162400000000002 10.458000000000002 3.005130000000001
O 276 15.162400000000002 10.458000000000002 3.005130000000001
O 277 2.8800799999999995 20.988199999999996 8.310190000000002
O 278 20.7593 6.428560000000001 17.8875
O 281 2.881830000000001 1.5863999999999976 4.45983
O 283 13.767500000000002 4.142199999999999 1.2076999999999956
O 283 13.767500000000002 4.142199999999999 1.2076999999999956
O 284 16.8314 13.8398 16.0622
O 284 16.8314 13.8398 16.0622
O 287 9.944790000000001 17.408599999999996 8.720600000000001
O 287 9.944790000000001 17.408599999999996 8.720600000000001
O 288 14.6555 15.613400000000002 14.222100000000001
O 290 8.13778 11.154500000000002 3.1233299999999993
O 291 2.5404100000000014 11.023900000000001 13.543299999999999
O 291 2.5404100000000014 11.023900000000001 13.543299999999999
O 292 7.537800000000001 21.2895 17.84
O 293 10.704200000000004 6.269590000000001 19.1347
O 294 12.834500000000002 1.5826999999999956 14.1726
O 297 3.275500000000001 19.9338 19.161000000000005
O 299 12.123499999999996 14.232800000000001 14.967400000000001
O 299 12.123499999999996 14.232800000000001 14.967400000000001
O 300 15.1099 10.858900000000002 18.6322
O 300 15.1099 10.858900000000002 18.6322
O 300 15.1099 10.858900000000002 18.6322
O 301 14.894200000000001 12.7561 4.01465
O 306 16.5517 6.414480000000001 16.963200000000004
O 308 13.299299999999999 9.5152 17.7918
O 308 13.299299999999999 9.5152 17.7918
O 309 0.9931999999999945 9.618550000000003 9.343970000000002
O 309 0.9931999999999945 9.618550000000003 9.343970000000002
O 309 0.9931999999999945 9.618550000000003 9.343970000000002
O 310 14.604499999999998 17.962800000000005 14.077099999999998
O 310 14.604499999999998 17.962800000000005 14.077099999999998
O 312 14.836299999999998 6.348410000000001 0.27019999999999555
O 312 14.836299999999998 6.348410000000001 0.27019999999999555
O 313 10.6476 14.409700000000004 4.714919999999999
O 314 15.9316 15.861499999999996 16.998499999999996
O 314 15.9316 15.861499999999996 16.998499999999996
O 317 18.3571 4.734970000000001 2.001010000000001
O 321 9.64169 18.7347 18.0487
O 321 9.64169 18.7347 18.0487
O 322 8.781009999999998 16.237200000000005 17.945799999999995
O 323 14.7589 0.7227999999999994 7.104479999999999
O 325 9.5196 2.3364900000000013 4.775639999999999
O 326 18.296899999999997 20.838600000000003 0.5947999999999993
O 326 18.296899999999997 20.838600000000003 0.5947999999999993
O 326 18.296899999999997 20.838600000000003 0.5947999999999993
O 327 16.7375 20.260499999999997 15.513899999999996
O 327 16.7375 20.260499999999997 15.513899999999996
O 327 16.7375 20.260499999999997 15.513899999999996
O 328 9.292669999999998 13.235400000000002 3.175039999999999
O 328 9.292669999999998 13.235400000000002 3.175039999999999
O 329 11.491000000000003 8.263279999999998 18.2293
O 329 11.491000000000003 8.263279999999998 18.2293
O 330 2.3389500000000005 19.0129 12.581500000000002
O 330 2.3389500000000005 19.0129 12.581500000000002
O 331 9.26614 16.8462 13.281499999999998
O 331 9.26614 16.8462 13.281499999999998
O 333 19.635 9.461659999999998 11.594399999999997
O 335 3.036619999999999 5.973479999999999 6.484190000000002
O 335 3.036619999999999 5.973479999999999 6.484190000000002
O 336 18.434299999999997 19.5014 8.104789999999998
O 337 19.330699999999997 8.127309999999998 13.529100000000003
O 337 19.330699999999997 8.127309999999998 13.529100000000003
O 339 15.181999999999999 1.7633999999999972 13.443299999999997
O 339 15.181999999999999 1.7633999999999972 13.443299999999997
O 343 5.3591000000000015 12.902800000000003 6.78848
O 343 5.3591000000000015 12.902800000000003 6.78848
O 344 7.907029999999999 0.37950000000000017 13.0641
O 345 10.957800000000002 10.1784 16.878599999999995
O 345 10.957800000000002 10.1784 16.878599999999995
O 346 7.06898 2.8982300000000016 5.330200000000001
O 347 2.805430000000001 13.967000000000002 5.331129999999998
O 348 2.027940000000001 9.399350000000002 15.168400000000002
O 348 2.027940000000001 9.399350000000002 15.168400000000002
O 348 2.027940000000001 9.399350000000002 15.168400000000002
O 351 0.7717000000000027 16.269700000000004 20.6623
O 352 1.836500000000001 0.8150999999999939 19.237399999999997
O 352 1.836500000000001 0.8150999999999939 19.237399999999997
O 359 14.232600000000001 3.9495900000000006 13.581399999999999
O 359 14.232600000000001 3.9495900000000006 13.581399999999999
O 360 17.0658 1.9854999999999983 11.3916
O 364 7.535059999999998 18.903200000000002 16.645100000000003
O 366 11.004700000000003 9.39745 5.177139999999998
O 367 4.432570000000002 9.9388 15.385499999999997
O 368 11.002500000000001 15.033599999999996 9.05103
O 368 11.002500000000001 15.033599999999996 9.05103
O 369 6.08456 1.9294399999999996 21.291299999999996
O 372 0.9576999999999956 18.508799999999997 14.978100000000001
O 373 5.972739999999998 14.517 18.8222
O 373 5.972739999999998 14.517 18.8222
O 374 11.899800000000003 5.358460000000001 17.379899999999996
O 377 5.040790000000001 0.39800000000000324 18.974999999999998
O 377 5.040790000000001 0.39800000000000324 18.974999999999998
O 380 18.3526 17.1151 2.4205000000000005
O 381 3.4451099999999997 2.44275 8.692420000000002
O 381 3.4451099999999997 2.44275 8.692420000000002
O 385 1.3647999999999954 7.114560000000001 19.2182
O 386 8.896840000000001 13.568000000000001 16.0575
O 386 8.896840000000001 13.568000000000001 16.0575
O 391 9.6616 8.89152 3.2917500000000004
O 391 9.6616 8.89152 3.2917500000000004
O 392 13.904399999999999 9.32281 20.168499999999998
O 393 10.5078 5.719480000000001 0.11280000000000001
O 393 10.5078 5.719480000000001 0.11280000000000001
O 394 6.467299999999998 8.4652 14.6707
O 395 16.1908 21.018800000000002 5.31324
O 395 16.1908 21.018800000000002 5.31324
O 397 9.999390000000002 3.6665600000000005 20.005100000000002
O 399 0.5148999999999972 20.3406 11.274199999999997
O 401 10.078 6.517430000000001 3.9781000000000013
O 406 8.83916 11.4635 17.0144
O 406 8.83916 11.4635 17.0144
O 407 18.4246 15.73 16.0506
O 408 11.966600000000003 19.0853 10.2893
O 409 14.291799999999999 17.154699999999995 18.4021
O 409 14.291799999999999 17.154699999999995 18.4021
O 410 14.593399999999999 7.888079999999999 15.906499999999998
O 411 17.050100000000004 3.301310000000001 13.275899999999996
O 411 17.050100000000004 3.301310000000001 13.275899999999996
O 411 17.050100000000004 3.301310000000001 13.275899999999996
O 412 4.35013 0.8868000000000009 6.411719999999999
O 412 4.35013 0.8868000000000009 6.411719999999999
O 413 6.648209999999999 3.0884399999999985 12.376899999999996
O 413 6.648209999999999 3.0884399999999985 12.376899999999996
O 415 4.138829999999999 21.337800000000005 9.999999999621423e-05
O 415 4.138829999999999 21.337800000000005 9.999999999621423e-05
O 422 14.918699999999998 13.250000000000004 7.349830000000001
O 423 21.2251 4.683699999999998 3.289909999999999
O 424 4.512080000000001 20.4686 12.0425
O 424 4.512080000000001 20.4686 12.0425
O 425 13.5857 14.135099999999998 5.6273599999999995
O 426 14.220400000000001 5.550879999999999 15.963600000000003
O 427 10.4846 0.7595999999999989 19.937100000000004
O 427 10.4846 0.7595999999999989 19.937100000000004
O 427 10.4846 0.7595999999999989 19.937100000000004
O 428 15.235499999999998 20.1996 13.679800000000004
O 428 15.235499999999998 20.1996 13.679800000000004
O 429 7.39818 9.073809999999998 2.1091799999999985
O 430 12.9622 10.6936 3.3765199999999993
O 430 12.9622 10.6936 3.3765199999999993
O 431 13.257700000000003 12.369800000000001 19.343999999999998
O 432 3.2814699999999988 12.587300000000003 15.046499999999998
O 433 19.1086 0.25679999999999836 16.272499999999997
O 434 7.992740000000001 15.258199999999999 14.621100000000002
O 434 7.992740000000001 15.258199999999999 14.621100000000002
O 435 19.512400000000003 0.6802999999999955 4.308450000000001
O 436 12.471500000000002 2.1221099999999993 2.75976
O 436 12.471500000000002 2.1221099999999993 2.75976
O 438 12.040699999999998 0.2820000000000036 16.9719
O 439 2.95589 15.485800000000001 21.1106
O 439 2.95589 15.485800000000001 21.1106
O 440 9.49542 17.9325 15.645399999999999
O 440 9.49542 17.9325 15.645399999999999
O 441 11.789999999999996 2.4772 0.037599999999997635
O 441 11.789999999999996 2.4772 0.037599999999997635
O 441 11.789999999999996 2.4772 0.037599999999997635
O 443 18.329399999999996 5.447669999999999 15.6604
O 443 18.329399999999996 5.447669999999999 15.6604
O 443 18.329399999999996 5.447669999999999 15.6604
O 444 10.5061 11.922999999999998 4.994789999999998
O 449 8.792080000000002 11.081099999999996 9.36986
O 449 8.792080000000002 11.081099999999996 9.36986
O 450 10.3336 14.319199999999999 11.2822
O 451 12.2576 9.9696 1.0445999999999955
O 452 4.194390000000002 18.178100000000004 3.7930400000000013
O 453 1.85689 19.230700000000002 3.6463
O 455 2.651589999999999 13.5896 19.468099999999996
O 456 0.11240000000000094 9.478579999999997 17.016099999999998
O 456 0.11240000000000094 9.478579999999997 17.016099999999998
O 459 19.723500000000005 0.6467000000000027 1.8483899999999984
O 459 19.723500000000005 0.6467000000000027 1.8483899999999984
O 460 10.868100000000002 4.159379999999999 4.041869999999999
O 464 4.739349999999998 19.4128 1.9009099999999997
O 464 4.739349999999998 19.4128 1.9009099999999997
O 465 0.38529999999999376 12.587999999999997 11.203099999999996
O 466 12.008799999999997 16.8676 9.67351
O 466 12.008799999999997 16.8676 9.67351
O 467 12.797 9.71031 15.198800000000002
O 468 12.807599999999997 19.0868 14.6769
O 468 12.807599999999997 19.0868 14.6769
O 469 0.4439999999999955 6.308499999999999 14.0716
O 470 3.1179999999999986 0.9478999999999971 2.091730000000002
O 474 17.145100000000003 0.15409999999999968 2.837579999999999
O 474 17.145100000000003 0.15409999999999968 2.837579999999999
O 475 21.278899999999997 20.8796 7.044270000000001
O 475 21.278899999999997 20.8796 7.044270000000001
O 477 12.148300000000003 7.485620000000001 16.261799999999997
O 477 12.148300000000003 7.485620000000001 16.261799999999997
O 477 12.148300000000003 7.485620000000001 16.261799999999997
O 479 13.3062 7.428370000000001 11.375899999999998
O 479 13.3062 7.428370000000001 11.375899999999998
O 480 7.389759999999999 4.516719999999999 15.618500000000001
O 481 18.1654 17.609399999999997 20.6161
O 482 20.4965 11.017 9.800889999999999
O 486 10.1723 10.897899999999996 7.33287
O 488 16.479900000000004 18.949900000000003 11.592600000000001
O 489 0.41689999999999827 17.7904 12.741800000000001
O 490 20.6129 4.30311 6.655260000000002
O 491 21.178 4.9558 11.358
O 493 6.764379999999999 14.950100000000003 6.581620000000001
O 495 14.385499999999997 19.8434 10.803
O 496 4.027000000000001 13.150200000000002 17.340499999999995
O 498 21.3661 9.314980000000002 13.5928
O 498 21.3661 9.314980000000002 13.5928
O 499 9.04675 13.732499999999998 7.436890000000002
O 499 9.04675 13.732499999999998 7.436890000000002
O 499 9.04675 13.732499999999998 7.436890000000002
O 500 17.3713 1.8658099999999997 5.183160000000001
O 500 17.3713 1.8658099999999997 5.183160000000001
O 500 17.3713 1.8658099999999997 5.183160000000001
O 501 20.5891 4.641829999999999 16.2732
O 501 20.5891 4.641829999999999 16.2732
O 502 20.841799999999996 7.170359999999999 12.210200000000004
O 502 20.841799999999996 7.170359999999999 12.210200000000004
O 502 20.841799999999996 7.170359999999999 12.210200000000004
O 503 15.962599999999998 2.579229999999999 6.618960000000001
O 503 15.962599999999998 2.579229999999999 6.618960000000001
O 504 5.619240000000001 1.0461000000000027 13.0217
O 504 5.619240000000001 1.0461000000000027 13.0217
O 505 11.064699999999998 12.3841 15.566100000000002
O 507 17.6698 16.3377 18.413299999999996
O 507 17.6698 16.3377 18.413299999999996
O 508 6.43948 20.891099999999998 20.9299
O 508 6.43948 20.891099999999998 20.9299
O 512 7.44041 4.267109999999999 19.105300000000003
O 514 14.186400000000003 9.98998 10.07
O 515 18.261600000000005 7.171579999999999 18.4744
O 518 18.1906 19.9331 13.624799999999997
O 520 12.951800000000002 19.0928 17.2347
O 520 12.951800000000002 19.0928 17.2347
O 525 2.4706200000000003 8.711839999999999 17.5725
O 525 2.4706200000000003 8.711839999999999 17.5725
O 525 2.4706200000000003 8.711839999999999 17.5725
O 526 11.754300000000004 9.88222 8.75367
O 526 11.754300000000004 9.88222 8.75367
O 526 11.754300000000004 9.88222 8.75367
O 527 3.8047299999999993 2.3510300000000015 12.0902
O 527 3.8047299999999993 2.3510300000000015 12.0902
O 528 11.537299999999998 20.2824 18.911599999999996
O 528 11.537299999999998 20.2824 18.911599999999996
O 529 21.1302 5.82122 9.081300000000002
O 530 6.316410000000001 12.218300000000003 11.3798
O 533 8.31259 8.2423 0.10229999999999961
O 533 8.31259 8.2423 0.10229999999999961
O 534 16.703 7.5090900000000005 2.9373199999999997
O 535 18.9579 7.69688 16.2653
O 535 18.9579 7.69688 16.2653
O 538 5.329329999999999 9.427020000000002 11.5521
O 538 5.329329999999999 9.427020000000002 11.5521
O 539 3.9720900000000015 8.670829999999999 6.628350000000001
O 540 16.2931 4.805330000000001 14.719899999999999
O 540 16.2931 4.805330000000001 14.719899999999999
O 541 10.2238 20.2126 8.711499999999997
O 543 1.8907600000000002 14.5579 9.05882
O 543 1.8907600000000002 14.5579 9.05882
O 544 3.639890000000001 17.1731 1.3064999999999998
O 545 16.954399999999996 14.787499999999998 13.837399999999999
O 546 2.4020800000000015 3.93966 20.0341
O 547 13.2792 11.682100000000002 5.520620000000001
O 547 13.2792 11.682100000000002 5.520620000000001
O 548 7.82225 18.767100000000003 9.150960000000001
O 548 7.82225 18.767100000000003 9.150960000000001
O 551 5.717600000000001 10.613 3.836850000000002
O 553 21.3404 13.825500000000002 13.5917
O 554 1.2024999999999935 18.073600000000003 10.339200000000002
O 555 12.568099999999998 3.6911799999999992 15.596
O 557 10.7056 15.444999999999997 6.95289
O 558 3.5124199999999988 16.017100000000003 12.058499999999999
O 562 13.9359 7.0489999999999995 13.737799999999996
O 562 13.9359 7.0489999999999995 13.737799999999996
O 564 2.679829999999999 20.008100000000002 1.6108999999999938
O 564 2.679829999999999 20.008100000000002 1.6108999999999938
O 565 8.60049 12.543499999999998 0.8830999999999989
O 567 1.4438999999999993 18.556500000000003 8.23791
O 568 2.9413599999999995 11.008700000000001 17.0442
O 568 2.9413599999999995 11.008700000000001 17.0442
O 568 2.9413599999999995 11.008700000000001 17.0442
O 569 3.9748100000000015 19.802899999999998 14.619600000000002
O 569 3.9748100000000015 19.802899999999998 14.619600000000002
O 570 4.409320000000001 14.304599999999997 2.026620000000001
O 571 14.7422 2.284130000000001 15.8899
O 573 20.526500000000002 9.9193 7.005680000000002
O 574 17.323600000000003 19.3032 3.9355399999999996
O 574 17.323600000000003 19.3032 3.9355399999999996
O 575 15.162400000000002 3.4789700000000003 11.364700000000003
O 577 4.024789999999999 2.0583300000000015 20.055899999999998
O 577 4.024789999999999 2.0583300000000015 20.055899999999998
O 578 15.489099999999997 7.830539999999999 19.5463
O 579 8.57181 13.636100000000003 18.4885
O 579 8.57181 13.636100000000003 18.4885
O 581 17.405400000000004 20.431 17.6401
O 581 17.405400000000004 20.431 17.6401
O 582 20.5635 18.284899999999997 7.513000000000002
O 584 3.5593499999999985 11.5059 5.616759999999999
O 584 3.5593499999999985 11.5059 5.616759999999999
O 585 0.16929999999999978 11.983300000000003 15.340099999999996
O 586 5.6681799999999996 1.0239999999999938 4.433309999999999
O 588 7.0158200000000015 14.912000000000003 16.8916
O 588 7.0158200000000015 14.912000000000003 16.8916
O 590 12.306100000000004 4.851469999999999 20.445600000000002
O 592 13.229400000000002 8.20768 9.070449999999997
O 592 13.229400000000002 8.20768 9.070449999999997
O 594 13.040200000000002 16.122199999999996 16.4153
O 596 14.136500000000002 13.748300000000004 15.8261
O 596 14.136500000000002 13.748300000000004 15.8261
O 598 3.13992 5.49897 18.111899999999995
O 598 3.13992 5.49897 18.111899999999995
O 598 3.13992 5.49897 18.111899999999995
O 601 12.9969 11.917400000000004 17.0022
O 601 12.9969 11.917400000000004 17.0022
O 603 12.161400000000004 8.391540000000003 2.7974299999999985
O 603 12.161400000000004 8.391540000000003 2.7974299999999985
O 603 12.161400000000004 8.391540000000003 2.7974299999999985
O 604 8.505669999999999 4.08484 3.1425100000000015
O 605 1.1773999999999987 15.1887 11.387400000000003
O 606 17.8997 4.405999999999999 6.34168
O 607 19.362799999999996 20.2407 5.968149999999998
O 608 11.932199999999998 13.1921 7.18899
O 608 11.932199999999998 13.1921 7.18899
O 610 5.958470000000002 3.1077800000000018 14.578999999999997
O 611 17.828099999999996 7.260180000000002 11.8015
O 612 1.0816999999999979 20.0072 18.0436
O 612 1.0816999999999979 20.0072 18.0436
O 612 1.0816999999999979 20.0072 18.0436
O 613 18.5765 5.063019999999998 17.8597
O 613 18.5765 5.063019999999998 17.8597
O 614 7.47795 20.658599999999996 2.0553500000000007
O 615 12.4451 16.4361 13.920599999999997
O 615 12.4451 16.4361 13.920599999999997
O 616 9.731260000000002 7.02196 16.824100000000005
O 616 9.731260000000002 7.02196 16.824100000000005
O 617 1.0144999999999982 10.214299999999998 11.526300000000003
O 617 1.0144999999999982 10.214299999999998 11.526300000000003
O 617 1.0144999999999982 10.214299999999998 11.526300000000003
O 619 19.498 18.339900000000004 18.445399999999996
O 620 11.907299999999996 7.093299999999999 4.91291
O 621 16.911199999999997 1.3856000000000037 16.8571
O 623 0.7398999999999987 4.802119999999999 18.4793
O 623 0.7398999999999987 4.802119999999999 18.4793
O 625 3.0106600000000014 12.955400000000001 7.5611
O 625 3.0106600000000014 12.955400000000001 7.5611
O 626 5.131260000000001 11.498900000000003 13.586299999999998
O 626 5.131260000000001 11.498900000000003 13.586299999999998
O 627 8.10574 13.663799999999998 9.7396
O 628 16.9862 1.4387999999999934 0.36410000000000053
O 629 17.841399999999997 18.2272 16.302700000000005
O 633 1.224499999999999 12.590500000000002 17.6433
O 634 16.7341 21.307099999999995 12.346700000000002
O 634 16.7341 21.307099999999995 12.346700000000002
O 634 16.7341 21.307099999999995 12.346700000000002
O 635 13.498099999999997 17.799899999999997 11.9055
O 636 12.624799999999997 14.9543 11.3143
O 637 14.537899999999997 8.43159 1.8534900000000007
O 637 14.537899999999997 8.43159 1.8534900000000007
O 639 2.281200000000002 20.586699999999997 5.970659999999999
O 640 5.553190000000001 13.7895 15.5577
O 641 6.8214700000000015 0.8526999999999987 6.824400000000001
O 643 8.530469999999998 9.12248 16.769300000000005
O 643 8.530469999999998 9.12248 16.769300000000005
O 646 4.854209999999998 12.962599999999998 4.39132
O 646 4.854209999999998 12.962599999999998 4.39132
O 648 19.1401 12.793400000000002 15.3122
O 648 19.1401 12.793400000000002 15.3122
O 649 14.221500000000002 1.5131000000000014 1.239600000000003
O 649 14.221500000000002 1.5131000000000014 1.239600000000003
O 650 1.2323999999999984 8.18769 6.917629999999999
O 650 1.2323999999999984 8.18769 6.917629999999999
O 651 18.161999999999995 13.907799999999998 18.1208
O 653 11.476299999999998 7.437989999999999 7.42595
O 654 12.603799999999996 1.4386999999999972 19.2621
O 654 12.603799999999996 1.4386999999999972 19.2621
O 655 17.125900000000005 3.8922999999999988 4.0105900000000005
O 655 17.125900000000005 3.8922999999999988 4.0105900000000005
O 655 17.125900000000005 3.8922999999999988 4.0105900000000005
O 661 13.8753 20.7788 15.675999999999998
O 664 3.15719 17.623899999999995 14.323699999999999
O 664 3.15719 17.623899999999995 14.323699999999999
O 664 3.15719 17.623899999999995 14.323699999999999
O 666 8.74566 3.0115900000000018 13.644899999999996
O 666 8.74566 3.0115900000000018 13.644899999999996
O 668 10.866800000000001 19.686399999999995 16.5027
O 668 10.866800000000001 19.686399999999995 16.5027
O 669 20.820899999999998 19.7989 9.21454
O 669 20.820899999999998 19.7989 9.21454
O 671 8.377750000000002 0.7778999999999954 0.4776999999999987
