6
Lattice="21.385 0.0 0.0 0.0 21.385 0.0 0.0 0.0 21.385"
Si 827 14.565999999999999 13.589699999999997 0.6760999999999981
O 55 13.767 12.163700000000002 1.1976000000000013
O 75 12.962399999999999 14.0975 0.10579999999999501
O 96 14.894499999999997 15.294700000000002 0.8323999999999998
O 532 15.277199999999997 13.406700000000004 20.5902
O 645 15.912000000000003 13.238899999999997 1.6651999999999987
