119
Lattice="22.1136 0.0 0.0 0.0 22.1136 0.0 0.0 0.0 22.1136"
O 1   20.30810 0.48780 21.14970
O 29  21.35250 1.90058 22.60260
O 118 19.68570 2.41135 19.63680
O 142 21.77390 0.37250 24.18104
O 185 20.25260 -0.91970 25.72422
O 223 17.51610 -1.16860 25.81778
O 327 19.18860 -3.05420 27.19137
O 409 17.43640 -1.39850 23.46220
O 438 16.23710 1.11030 25.52848
O 441 14.19330 1.13070 26.36941
O 468 15.82210 0.51660 23.29490
O 520 17.26850 1.83147 27.75896
O 634 16.58950 3.34382 29.89017
O 654 15.68810 1.45308 30.99356
O 659 13.34630 -0.13300 24.27202
O 6   4.73741 19.36160 14.41720
O 49  3.34481 19.21630 16.50740
O 50  5.59978 19.30790 16.88590
O 107 4.04562 21.75060 13.36910
O 162 3.11379 23.77171 13.01070
O 174 4.75433 23.53630 14.87930
O 178 5.52769 23.88493 12.24140
O 225 6.88490 24.07283 14.53940
O 230 5.10905 26.02706 14.02320
O 235 4.83311 28.42848 14.21190
O 264 4.02588 27.60064 11.92230
O 277 5.75399 27.37912 16.45540
O 281 4.28173 27.85637 18.52830
O 325 2.56028 26.50137 18.32640
O 376 2.68938 28.57282 20.01730
O 396 9.32049 23.62329 14.75390
O 398 8.77137 25.15779 13.06710
O 412 7.91067 22.13280 16.01750
O 423 8.56636 23.15250 18.34070
O 435 10.56090 23.92353 12.46750
O 491 9.75002 25.90179 15.03740
O 529 9.67689 22.99290 10.67370
O 554 12.88920 23.00190 12.15740
O 564 13.88410 25.12508 13.12110
O 567 7.32107 21.52730 10.50300
O 582 5.51380 19.08780 19.12580
O 586 4.45998 17.30280 17.22130
O 597 8.21542 18.84560 16.75110
O 669 3.74225 20.71270 18.18580
O 11  16.06610 8.45700 12.91950
O 40  15.33720 6.76888 14.11610
O 401 17.30850 6.48365 13.05300
O 576 14.07780 7.01798 12.23210
O 620 11.92560 7.09148 12.94280
O 19  8.45854 15.96150 3.92263
O 48  10.14620 15.36300 5.64894
O 116 7.02741 13.86160 4.27605
O 167 6.51706 13.56990 2.05459
O 212 5.81236 11.96920 4.91519
O 229 7.08675 12.82410 6.60702
O 351 6.48910 15.04600 6.53542
O 373 8.65304 15.19510 7.64915
O 432 5.19800 16.90860 5.45067
O 455 5.44723 18.21970 7.32028
O 476 3.09592 17.94340 6.60874
O 496 9.80795 17.12040 8.13276
O 544 8.17021 18.18930 9.27771
O 568 11.79300 16.80690 6.48803
O 24  15.78760 14.15540 9.56235
O 55  13.53110 14.09500 9.24935
O 96  16.32170 15.13710 12.07150
O 113 18.22900 14.77380 10.68630
O 248 19.31500 16.74660 11.47320
O 301 17.27510 17.08240 10.69480
O 358 18.59790 14.97090 13.44020
O 565 19.66020 17.42460 9.30313
O 667 20.61130 19.11370 10.62030
O 28  17.44230 9.69510 18.11040
O 89  18.79240 11.27200 18.77690
O 122 16.11600 11.11920 16.92310
O 144 18.05770 8.10262 19.81690
O 164 16.62660 6.36009 20.33490
O 202 18.29400 6.54153 17.83430
O 214 18.39880 4.48887 16.83300
O 238 16.44400 5.31664 18.39790
O 260 20.37960 4.96956 16.02840
O 343 20.48410 3.59561 14.19350
O 349 14.12570 11.90720 15.58250
O 449 14.70110 13.71310 16.91890
O 479 12.91990 12.22010 17.59800
O 486 11.45220 13.21940 15.92310
O 503 10.25960 11.65250 17.42260
O 514 9.20627 13.89920 17.35030
O 526 7.84337 15.07760 18.93290
O 592 9.59320 14.12840 14.88490
O 32  21.46590 15.15990 2.72219
O 284 21.94430 13.09680 3.96813
O 33  13.66780 14.10880 3.12549
O 386 12.94180 11.75320 1.55654
O 83  6.38371 0.73220 1.98383
O 266 7.39875 -1.12600 3.17877
O 271 8.38268 -0.86330 1.03570
O 569 9.34488 -2.28420 -0.40870
O 97  16.74430 8.53621 2.55983
O 148 15.85270 9.20750 4.49606
O 329 16.41290 9.01762 6.94394
O 392 16.77140 7.86530 8.75991
O 477 18.43830 10.11330 6.63595
O 105 2.55453 11.11680 20.61190
O 333 3.28837 10.53490 22.70420
O 498 4.80209 11.25060 19.75670
O 617 4.91229 9.57506 21.33390
O 188 0.33250 12.57260 13.58960
O 462 0.34710 13.48910 11.36500
O 201 13.18940 19.52950 10.94500
O 389 13.53790 18.31320 13.60200
O 519 12.78930 17.55830 15.67540
O 207 3.10369 6.16879 7.31664
O 257 5.71367 5.98222 7.76248
O 216 10.33170 1.49936 21.39710
O 259 11.18520 3.51403 20.34880
O 413 12.88330 3.19131 21.83210
O 504 13.15720 2.04947 19.63480
O 666 13.14140 -0.63050 18.84220
