8
Lattice="22.1136 0.0 0.0 0.0 22.1136 0.0 0.0 0.0 22.1136"
Si 681 3.22367 0.67010 14.56310
Si 754 6.34536 0.64730 15.61260
Si 783 8.32996 2.98201 14.87880
Si 879 6.00524 5.22366 14.84250
Si 901 8.08636 2.77987 18.27880
Si 936 6.09375 7.38484 13.68690
Si 956 3.50641 5.29721 14.10000
Si 992 4.14095 4.77456 17.24910
