243
Lattice="22.1136 0.0 0.0 0.0 22.1136 0.0 0.0 0.0 22.1136"
Si 674  13.57600 6.89175 13.78390
Si 675  12.79610 3.77720 14.19060
Si 677  12.46150 6.34665 11.46080
Si 678  11.91380 9.10277 15.12100
Si 679  10.49330 7.47956 13.52600
Si 680  8.16123 9.09162 12.49060
Si 681  6.09375 7.38484 13.68690
Si 682  7.25329 8.36999 15.56800
Si 684  8.93656 10.72960 16.80670
Si 686  4.94513 10.14070 16.17750
Si 687  6.00524 5.22366 14.84250
Si 688  4.14095 4.77456 17.24910
Si 689  5.57062 2.41772 13.75220
Si 690  6.34536 0.64730 15.61260
Si 691  6.17261 2.50737 10.82000
Si 692  9.14501 2.32495 11.53660
Si 693  5.56821 5.52489 11.52330
Si 695  9.66152 5.26912 10.35300
Si 696  8.83464 -0.15410 9.73345
Si 698  11.46380 1.10680 11.20680
Si 700  11.78280 2.53535 8.69029
Si 701  14.15350 1.42560 13.07200
Si 702  13.26590 -0.02020 15.61850
Si 703  14.30890 3.98488 11.79150
Si 706  17.22520 0.71420 12.27440
Si 707  18.33200 -2.09730 13.46780
Si 708  17.82290 1.19970 15.30460
Si 709  15.62560 0.04510 9.72296
Si 710  18.39600 3.14330 11.05500
Si 711  20.06460 0.79650 11.60890
Si 713  21.26920 2.15615 13.85530
Si 714  20.48580 -1.47470 9.56237
Si 716  23.22630 -1.08690 8.25838
Si 718  18.81960 -0.40910 7.46810
Si 719  20.77470 -4.10830 8.34178
Si 720  21.84750 -2.89370 11.66520
Si 721  23.77603 -1.10970 12.90630
Si 722  25.32253 -3.81700 13.46280
Si 723  23.66223 -6.28930 13.87020
Si 725  27.54834 -4.93960 11.92930
Si 727  27.29547 -1.46610 13.70300
Si 729  27.53322 -6.70750 9.35155
Si 730  27.54057 -7.16120 13.97950
Si 731  26.29362 -9.92650 14.24160
Si 732  26.79389 -6.40350 16.92780
Si 733  30.44244 -7.71360 13.84850
Si 734  33.40570 -7.63130 14.70670
Si 737  31.96614 -9.18610 16.19400
Si 738  31.52456 -7.83670 18.96580
Si 739  29.88524 -7.16600 17.07620
Si 740  33.88390 -11.03980 17.64890
Si 741  36.78340 -10.14660 17.27650
Si 742  36.61010 -10.33450 20.50320
Si 743  39.96520 -10.99560 17.38620
Si 744  36.57250 -10.03890 13.93410
Si 745  37.77270 -7.08500 16.69110
Si 746  36.39770 -4.83790 14.91530
Si 747  40.26600 -8.52140 15.90410
Si 748  40.82570 -8.75870 13.11870
Si 749  43.48150 -9.78400 11.89040
Si 750  44.32040 -12.87363 12.08360
Si 751  44.32820 -7.42220 10.35640
Si 752  45.86567 -9.09760 12.57280
Si 753  43.24630 -11.02150 9.19014
Si 755  43.82700 -10.56920 14.61390
Si 756  46.39351 -12.43303 14.86950
Si 757  41.52220 -12.52511 14.96860
Si 758  43.09720 -13.82738 17.12890
Si 760  46.09323 -14.02033 17.22020
Si 761  40.92620 -12.65750 19.07700
Si 762  41.75800 -16.60777 17.49980
Si 765  43.13420 -18.66260 19.02960
Si 766  41.23900 -18.21670 15.49000
Si 770  43.19070 -16.89238 14.29720
Si 771  39.20860 -16.54072 16.81410
Si 772  36.57140 -18.01086 16.73730
Si 774  38.21810 -17.38429 20.07210
Si 777  36.12480 -19.06941 20.68740
Si 778  40.18290 -19.98330 19.83660
Si 779  38.14690 -16.80338 23.10670
Si 781  39.19860 -14.58144 21.34290
Si 782  40.21820 -13.98133 24.00592
Si 783  36.67200 -12.99129 21.60140
Si 784  35.90370 -11.68230 24.28789
Si 787  34.76510 -15.01958 20.64580
Si 788  33.81740 -17.72202 22.04780
Si 789  32.78840 -12.97226 21.56250
Si 791  30.69908 -12.96647 19.45630
Si 793  33.49890 -10.32220 22.92740
Si 794  31.13228 -9.13090 21.35650
Si 795  31.15650 -11.53710 24.85194
Si 796  34.70160 -9.04620 24.69342
Si 797  36.17800 -7.70770 26.82973
Si 798  37.51360 -7.04970 24.88061
Si 799  39.71580 -8.22780 24.38095
Si 801  35.94230 -5.69660 23.02030
Si 802  39.97550 -5.20450 24.48676
Si 803  40.00930 -4.02240 27.34828
Si 804  38.10470 -1.84170 26.48782
Si 805  41.97020 -1.59210 27.15961
Si 809  43.36790 -3.82330 27.55083
Si 810  39.70980 -6.18590 29.47238
Si 811  37.00150 -6.74870 30.96930
Si 812  41.41580 -6.22010 32.03600
Si 813  40.45200 -8.24530 27.34189
Si 814  42.52550 -8.23450 25.45207
Si 815  41.65810 -10.74550 28.67837
Si 816  43.47150 -10.71750 26.03205
Si 817  39.84640 -12.98329 30.03895
Si 818  39.97190 -11.14030 32.61880
Si 819  37.86610 -14.65977 29.24733
Si 821  41.27770 -14.31743 28.24404
Si 822  39.52720 -15.01170 32.12200
Si 825  44.22960 -13.80583 28.26324
Si 827  46.22219 -15.31805 28.25688
Si 828  44.98280 -14.52872 25.37479
Si 829  45.83970 -11.73490 25.23192
Si 830  46.62285 -16.72981 25.66559
Si 832  47.31853 -19.41135 24.43842
Si 833  44.53630 -19.82480 23.76781
Si 834  49.80999 -21.22720 25.52102
Si 835  47.91704 -19.30663 21.46670
Si 836  47.38413 -17.25292 19.80400
Si 837  46.10488 -21.86070 21.40070
Si 838  50.47615 -20.69900 22.56460
Si 839  52.26027 -23.14780 21.57610
Si 840  52.23709 -21.88980 24.31958
Si 841  52.97923 -22.53350 26.92954
Si 842  54.21996 -24.04520 23.22980
Si 843  54.30030 -19.86857 22.88940
Si 844  51.92224 -24.76320 24.75783
Si 845  49.34185 -25.65010 23.30720
Si 848  48.92565 -27.23930 25.87357
Si 850  49.67681 -24.70550 20.67460
Si 851  51.06879 -25.10570 18.02300
Si 852  51.26149 -27.90870 19.51500
Si 853  52.67199 -22.44080 17.57430
Si 855  52.09405 -26.56860 15.75550
Si 856  53.83358 -24.91800 17.59340
Si 857  56.60400 -26.28230 17.22830
Si 858  54.39390 -25.04940 20.46970
Si 859  56.86950 -23.07120 20.35310
Si 861  55.25530 -26.69580 22.59350
Si 863  58.68330 -25.16200 21.91910
Si 867  58.35710 -23.72650 17.88930
Si 869  57.98510 -20.69230 18.20860
Si 870  60.81350 -21.50950 17.63170
Si 871  58.05990 -23.88390 24.78200
Si 872  57.36550 -25.32740 26.82350
Si 876  55.94650 -21.73320 24.45698
Si 877  57.08260 -20.97880 27.27348
Si 878  56.39410 -22.30960 29.83901
Si 880  60.04960 -21.06790 27.13653
Si 881  60.73440 -20.34125 29.45805
Si 882  62.70380 -19.20789 27.49703
Si 883  61.06390 -17.36098 25.70531
Si 884  64.50250 -18.64776 25.60564
Si 886  62.53110 -18.38689 22.99300
Si 887  64.74900 -19.88617 21.16040
Si 888  60.60370 -20.61834 22.07220
Si 890  64.38560 -16.46062 21.87820
Si 891  65.22540 -13.71276 20.97420
Si 893  67.04400 -17.46084 21.67000
Si 894  67.98091 -14.74458 20.88530
Si 895  70.31112 -13.29987 22.53660
Si 896  70.04534 -14.77198 18.77600
Si 897  71.83276 -12.39966 19.38950
Si 898  70.76497 -9.52260 18.93000
Si 899  70.58100 -11.06800 21.32760
Si 900  72.81731 -9.01710 22.57470
Si 901  68.30459 -10.67610 22.39080
Si 902  68.08977 -10.21970 19.37620
Si 903  67.60140 -7.19530 20.33320
Si 907  69.17050 -7.71420 22.99400
Si 908  66.54660 -7.14860 23.28190
Si 909  64.99500 -6.06060 21.01270
Si 910  65.33460 -9.87950 22.05320
Si 912  66.32600 -5.72850 25.79177
Si 913  67.24600 -8.38060 27.04218
Si 914  69.80010 -7.64650 25.79023
Si 916  64.79450 -12.31302 23.66081
Si 917  63.02690 -9.98930 20.14610
Si 919  61.26940 -10.38250 22.40670
Si 920  60.72390 -11.99530 25.22812
Si 922  60.04200 -14.45149 26.29635
Si 923  57.06920 -14.11398 25.70903
Si 926  56.07730 -16.88595 25.04725
Si 927  71.26578 -7.14850 20.87560
Si 928  72.78246 -9.64850 25.44004
Si 930  70.98694 -12.04470 25.11599
Si 935  72.91918 -10.77710 28.29320
Si 936  73.87932 -8.13280 29.76882
Si 938  76.82330 -6.19000 29.30287
Si 939  75.78967 -9.91740 31.64621
Si 940  78.41000 -8.51230 30.86501
Si 941  80.99420 -9.23540 31.75608
Si 942  81.16440 -10.26130 28.65119
Si 943  79.56330 -11.89040 32.52330
Si 944  79.59130 -14.30586 30.86961
Si 945  76.02101 -3.12060 31.01285
Si 946  77.91330 -5.87740 26.98425
Si 947  79.63250 -4.85440 29.15230
Si 948  78.88980 -2.86490 31.51208
Si 949  80.45990 -2.94780 34.44210
Si 951  82.14050 -4.54510 32.44210
Si 952  78.24620 -4.74770 36.27140
Si 953  77.44190 -1.76490 36.23440
Si 955  78.52720 -6.96290 34.24090
Si 957  81.34710 -7.29560 35.02960
Si 958  75.06358 -0.01690 36.67430
Si 960  76.72380 -2.74940 27.90881
Si 961  72.97497 -3.63470 30.60874
Si 963  72.19106 -1.07250 31.91658
Si 964  70.93171 -3.52740 28.07323
Si 965  72.68173 -1.16440 28.98855
Si 967  68.20453 -3.17640 28.33480
Si 971  69.49591 -5.34020 29.90271
Si 972  72.77815 -9.67880 16.64590
Si 974  72.51759 -15.40616 22.13520
Si 976  65.39990 -21.88660 22.61230
Si 978  64.90480 -22.79730 19.99380
Si 979  66.07780 -22.75980 25.44282
Si 980  60.05270 -17.30267 29.72804
Si 981  59.88040 -19.04174 31.67813
Si 982  53.69066 -20.91500 29.44262
Si 983  53.56294 -18.16917 29.87860
Si 984  51.17179 -19.67709 27.78989
Si 985  55.99510 -28.82520 18.94810
Si 986  57.74310 -29.82870 20.99730
Si 987  53.55770 -20.89350 19.96740
Si 989  52.31356 -19.33373 18.27880
Si 990  54.57900 -17.58317 19.43360
Si 992  49.36633 -20.13739 18.00000
Si 993  45.38150 -17.17589 17.51560
Si 996  44.59500 -19.78387 16.57880
Si 997  47.37332 -17.40037 30.14254
Si 999  40.54330 -16.69079 13.23110
Si 1000 44.27590 -17.07222 11.27780
Si 1001 45.35190 -14.75009 14.35640
Si 1002 48.42700 -12.46715 12.59060
Si 1003 47.80323 -8.95990 10.13450
Si 1004 38.95300 -3.67060 15.70050
Si 1005 24.51213 -7.92250 16.37190
