6
Lattice="21.2067 0.0 0.0 0.0 21.2067 0.0 0.0 0.0 21.2067"
Si 761 13.694399999999998 12.862599999999997 2.6506299999999996
O 20 13.9282 11.6296 1.392400000000002
O 113 15.274399999999996 13.391500000000004 2.5026100000000007
O 313 13.265899999999998 14.1589 3.6175099999999993
O 328 12.261700000000001 13.2315 1.8126999999999995
O 444 13.245500000000003 11.7086 3.62209
