6
Lattice="21.2067 0.0 0.0 0.0 21.2067 0.0 0.0 0.0 21.2067"
Si 887 15.2441 20.279300000000003 2.797609999999999
O 4 13.928700000000003 21.1457 3.2964599999999997
O 36 15.8995 19.8336 4.339020000000001
O 157 16.543000000000003 0.2049999999999983 2.564209999999999
O 383 14.513200000000001 18.661200000000004 2.8201600000000013
O 448 15.004999999999999 20.113399999999995 1.2068999999999974
