6
Lattice="21.2067 0.0 0.0 0.0 21.2067 0.0 0.0 0.0 21.2067"
Si 761 13.8982 12.882900000000003 2.597249999999999
O 20 14.033399999999997 11.546800000000001 1.4806000000000026
O 113 15.439400000000003 13.289600000000004 2.4576600000000006
O 313 13.494699999999998 14.3248 3.404820000000001
O 328 12.3625 13.113400000000002 1.806199999999997
O 444 13.497699999999998 11.843799999999998 3.7789199999999994
