6
Lattice="21.2067 0.0 0.0 0.0 21.2067 0.0 0.0 0.0 21.2067"
Si 798 12.553499999999996 2.75028 7.517949999999999
O 53 10.845499999999998 2.1547400000000003 7.579180000000001
O 73 12.330499999999997 2.8376599999999996 5.852399999999999
O 120 12.188599999999997 4.25684 8.09347
O 242 14.1917 3.0670600000000015 7.468979999999998
O 595 12.8154 1.111699999999999 7.883289999999999
