6
Lattice="21.2067 0.0 0.0 0.0 21.2067 0.0 0.0 0.0 21.2067"
Si 776 6.29346 19.0973 1.6468999999999951
O 192 6.70806 20.580300000000005 2.3406400000000005
O 452 7.0501000000000005 17.9128 2.457419999999999
O 453 4.81784 18.990999999999996 2.3453100000000013
O 464 7.4704000000000015 19.114900000000002 0.4258000000000024
O 564 5.434570000000001 19.828299999999995 0.22500000000000142
