696
Lattice="21.2067 0.0 0.0 0.0 21.2067 0.0 0.0 0.0 21.2067"
Si 674 19.304200000000005 3.314119999999999 4.2789
Si 680 20.5027 1.1561999999999983 11.471500000000002
Si 687 18.5635 20.381899999999998 9.912009999999999
Si 688 0.4837999999999951 11.641200000000001 2.802479999999999
Si 691 3.264009999999999 9.044079999999997 6.42005
Si 695 18.9849 14.676799999999997 10.461000000000002
Si 697 0.6265000000000001 16.0348 9.327479999999998
Si 698 7.01069 0.9793000000000021 10.5443
Si 700 16.534900000000004 13.443300000000004 18.1324
Si 705 16.540199999999995 15.853100000000001 5.253299999999999
Si 706 2.10998 6.979589999999998 12.496599999999997
Si 707 10.5735 17.180599999999995 6.75215
Si 713 19.8058 17.7385 1.503700000000002
Si 716 18.905799999999996 0.7336999999999989 4.921980000000001
Si 717 4.5269200000000005 6.550250000000002 20.254900000000003
Si 721 0.4573999999999998 5.733969999999999 17.929
Si 722 15.875400000000003 10.318200000000001 12.028400000000001
Si 724 8.549780000000002 8.04694 17.4243
Si 725 8.27814 18.1835 7.508520000000001
Si 731 15.842600000000001 9.94256 7.069330000000001
Si 734 5.3689 15.166 9.384330000000002
Si 737 0.5402999999999949 7.216829999999998 10.4541
Si 739 10.5395 20.117100000000004 20.098899999999997
Si 745 3.2219300000000004 13.6739 10.6816
Si 747 6.878360000000001 12.748999999999999 4.532610000000002
Si 750 15.275400000000001 6.819710000000001 11.610800000000001
Si 751 12.076000000000004 6.59853 20.351700000000005
Si 753 13.935799999999997 18.496800000000004 16.4072
Si 759 1.5111999999999952 20.5969 20.603000000000005
Si 769 4.068439999999999 9.856260000000002 19.4815
Si 770 7.00759 20.627599999999997 8.4773
Si 772 9.966620000000002 20.759200000000003 15.163900000000002
Si 773 18.7407 4.9259699999999995 14.4511
Si 776 6.208729999999999 19.139999999999997 1.6742999999999952
Si 777 14.616299999999999 4.386120000000002 13.027399999999997
Si 781 18.0821 13.543800000000001 15.209900000000001
Si 785 2.3475800000000007 8.01379 0.3742999999999981
Si 787 12.876099999999997 3.090679999999999 1.9616599999999984
Si 796 14.766900000000003 7.97372 0.06479999999999819
Si 797 14.3017 7.09422 16.2467
Si 799 14.148700000000002 0.09429999999999694 17.051399999999997
Si 801 6.668759999999999 20.821099999999998 0.15400000000000347
Si 802 10.179300000000001 3.749410000000001 12.481800000000003
Si 804 10.5517 8.590529999999998 4.99391
Si 806 20.6384 0.8500999999999976 0.25429999999999353
Si 807 7.280470000000001 10.899600000000003 2.775549999999999
Si 809 5.410440000000001 18.0461 8.09807
Si 810 20.285999999999998 14.7122 15.857200000000002
Si 814 9.93411 13.327099999999998 5.308399999999999
Si 817 14.702700000000004 0.8751999999999995 19.286200000000004
Si 819 11.743800000000004 18.7931 14.977999999999998
Si 821 0.6703999999999937 10.656600000000001 9.924969999999998
Si 823 18.7833 6.850010000000001 0.5696000000000012
Si 825 8.038630000000001 0.5929999999999964 18.961499999999997
Si 827 17.255300000000002 13.2394 20.650299999999998
Si 828 15.287000000000003 9.48807 15.297300000000003
Si 829 11.885699999999996 8.775499999999997 0.5123999999999995
Si 835 0.4701999999999984 9.29083 12.149800000000003
Si 837 18.369399999999995 9.40654 18.1609
Si 842 2.6706900000000005 6.1693 9.201049999999999
Si 853 17.8745 3.973110000000002 11.842400000000001
Si 854 9.958870000000001 1.5521999999999991 10.664199999999997
Si 856 16.1067 0.4174999999999969 9.91293
Si 859 12.774600000000003 17.843699999999995 10.863200000000003
Si 864 1.4995999999999938 8.551759999999998 18.700799999999997
Si 869 6.330629999999999 13.690899999999996 7.3964
Si 873 13.860200000000003 8.042939999999998 2.981819999999999
Si 875 0.09060000000000201 16.138699999999996 13.507000000000001
Si 876 6.175329999999999 1.1625999999999976 17.242699999999996
Si 880 1.160499999999999 8.203669999999999 5.392469999999999
Si 882 16.055400000000002 15.088899999999999 13.398399999999999
Si 888 15.896899999999999 12.903900000000004 5.802699999999998
Si 890 10.901900000000001 19.5164 8.76351
Si 895 10.666 19.969599999999996 11.426799999999997
Si 896 20.7368 8.51577 16.955099999999998
Si 898 10.1481 14.904099999999996 9.07207
Si 900 2.7653999999999996 11.070400000000003 0.5372999999999948
Si 902 11.552699999999998 0.22279999999999944 17.6915
Si 907 20.714300000000005 3.9471799999999995 13.0973
Si 909 11.218999999999998 7.797999999999998 16.043199999999995
Si 910 18.3912 16.146200000000004 17.093500000000002
Si 918 10.3442 10.892199999999999 16.0498
Si 919 20.497200000000003 8.913 20.168000000000003
Si 920 5.644259999999999 7.17925 5.543749999999999
Si 927 3.5076199999999993 10.9539 8.89395
Si 928 18.705899999999996 20.423 2.3748900000000006
Si 931 7.783999999999999 5.5530100000000004 17.371800000000004
Si 933 15.568099999999998 17.2721 12.136999999999997
Si 938 20.9134 18.879500000000004 19.951400000000003
Si 939 20.341000000000005 7.9625699999999995 3.174310000000002
Si 941 14.1645 1.966429999999999 0.2798999999999978
Si 944 4.235229999999998 9.3766 11.754000000000001
Si 948 17.894000000000002 8.46358 13.491800000000001
Si 950 15.594800000000003 5.8069099999999985 9.275850000000002
Si 955 1.6585999999999999 4.4994499999999995 10.9483
Si 957 6.39133 10.0063 16.1178
Si 958 8.96114 17.727100000000004 10.375899999999998
Si 961 20.4768 6.282329999999998 15.683600000000002
Si 962 10.6769 5.96923 17.739299999999997
Si 963 15.139799999999997 12.156200000000002 13.675900000000002
Si 965 9.640330000000002 18.166700000000002 13.608999999999998
Si 969 10.325100000000003 9.778850000000002 2.5510100000000016
Si 970 13.125400000000003 0.15679999999999694 14.696899999999996
Si 971 13.864999999999998 4.024069999999998 19.894500000000004
Si 972 19.299199999999995 18.6437 15.409600000000001
Si 975 21.1555 2.2048999999999985 2.7845000000000013
Si 976 4.6024899999999995 8.619130000000002 9.323550000000001
Si 979 12.622600000000002 2.49184 11.088899999999999
Si 980 13.038700000000002 14.281299999999998 6.538869999999999
Si 987 16.8289 1.7602999999999938 1.7809999999999988
Si 989 17.170399999999997 7.805810000000001 9.092560000000002
Si 990 20.1915 21.0832 14.713899999999999
Si 995 17.548 2.957049999999999 20.8293
Si 997 9.19184 6.897839999999999 3.7006200000000007
Si 1002 1.3303999999999974 8.504839999999998 15.0455
Si 1007 14.245100000000004 7.989259999999998 7.7897500000000015
O 1 17.736699999999995 18.3173 14.953300000000002
O 7 6.7341000000000015 9.38694 2.79701
O 8 18.112999999999996 15.385299999999997 18.454400000000003
O 9 21.054600000000004 3.2178299999999993 14.470099999999999
O 10 2.0562199999999997 11.352599999999999 20.2249
O 12 1.1638999999999982 3.195260000000001 3.1882400000000004
O 13 14.2197 8.02901 11.706300000000002
O 15 10.7106 18.511 20.4363
O 16 11.419799999999999 5.943450000000002 0.4619
O 18 4.63109 13.0883 11.490800000000004
O 23 19.922700000000003 7.501670000000001 20.658399999999997
O 23 19.922700000000003 7.501670000000001 20.658399999999997
O 25 11.953100000000003 19.111900000000002 11.575700000000001
O 25 11.953100000000003 19.111900000000002 11.575700000000001
O 26 18.138900000000003 11.846 15.189000000000004
O 27 15.886999999999997 20.957599999999996 19.1846
O 28 15.714200000000002 4.197800000000001 9.108439999999998
O 29 12.664600000000004 0.3462999999999994 16.3772
O 29 12.664600000000004 0.3462999999999994 16.3772
O 29 12.664600000000004 0.3462999999999994 16.3772
O 30 5.2258 7.535119999999999 3.5077299999999987
O 34 9.452450000000002 0.896099999999997 9.25133
O 35 1.1017999999999972 8.9449 16.672300000000003
O 35 1.1017999999999972 8.9449 16.672300000000003
O 35 1.1017999999999972 8.9449 16.672300000000003
O 38 7.001839999999998 7.224820000000001 17.5065
O 38 7.001839999999998 7.224820000000001 17.5065
O 39 19.285700000000002 9.15579 16.758
O 39 19.285700000000002 9.15579 16.758
O 40 10.1253 6.1656200000000005 2.5577599999999983
O 41 20.6395 2.29936 1.1608000000000018
O 41 20.6395 2.29936 1.1608000000000018
O 47 14.1754 16.936900000000005 16.841999999999995
O 51 11.209799999999998 5.899829999999998 19.236
O 51 11.209799999999998 5.899829999999998 19.236
O 52 17.5847 9.682680000000001 12.337
O 52 17.5847 9.682680000000001 12.337
O 55 16.287900000000004 12.061499999999999 0.13579999999999615
O 57 5.744019999999999 0.5272000000000006 11.485699999999998
O 58 10.9134 5.917760000000001 16.137600000000003
O 58 10.9134 5.917760000000001 16.137600000000003
O 60 6.96452 14.988899999999997 6.782799999999998
O 62 19.876 18.611699999999995 0.006199999999999761
O 62 19.876 18.611699999999995 0.006199999999999761
O 64 19.756399999999996 16.0228 12.846500000000002
O 65 3.7439399999999985 7.298100000000002 9.258770000000002
O 65 3.7439399999999985 7.298100000000002 9.258770000000002
O 66 10.6765 5.162870000000002 11.9408
O 68 0.6317000000000021 4.775310000000001 12.221599999999999
O 68 0.6317000000000021 4.775310000000001 12.221599999999999
O 74 16.371 15.285700000000002 6.809450000000002
O 75 15.664399999999997 13.657900000000001 19.6159
O 75 15.664399999999997 13.657900000000001 19.6159
O 76 18.7129 17.776099999999996 16.8032
O 76 18.7129 17.776099999999996 16.8032
O 78 8.243370000000002 17.5498 14.1887
O 82 2.132670000000001 0.24969999999999715 19.356400000000004
O 84 18.0945 4.3513899999999985 4.328469999999999
O 85 8.61515 14.3396 9.247119999999999
O 89 14.779900000000001 5.402419999999999 10.7086
O 89 14.779900000000001 5.402419999999999 10.7086
O 90 20.513100000000005 5.287679999999998 19.0846
O 91 19.552000000000003 16.8019 2.91197
O 92 20.5453 19.4682 18.455899999999996
O 93 10.5123 15.775000000000002 7.738019999999999
O 93 10.5123 15.775000000000002 7.738019999999999
O 95 1.4088999999999956 18.9849 20.160999999999998
O 95 1.4088999999999956 18.9849 20.160999999999998
O 96 17.4113 14.878600000000002 20.878399999999996
O 97 15.481599999999997 6.51258 21.0168
O 99 10.7397 20.706100000000003 7.54363
O 100 0.7238999999999933 15.0958 12.317600000000002
O 101 1.5686999999999998 10.487100000000002 3.2903899999999986
O 105 5.22598 8.45325 10.930299999999999
O 105 5.22598 8.45325 10.930299999999999
O 106 16.3888 9.47215 5.662569999999999
O 108 14.032300000000003 17.821499999999997 11.950399999999998
O 108 14.032300000000003 17.821499999999997 11.950399999999998
O 110 19.205300000000005 9.81456 19.4958
O 110 19.205300000000005 9.81456 19.4958
O 111 13.0532 8.499579999999998 8.786010000000001
O 114 18.120699999999996 2.8033199999999994 1.3093000000000004
O 114 18.120699999999996 2.8033199999999994 1.3093000000000004
O 118 19.984199999999998 0.4078000000000017 12.971500000000002
O 118 19.984199999999998 0.4078000000000017 12.971500000000002
O 119 17.1579 2.7814799999999984 19.3117
O 121 6.067029999999999 8.98284 8.74962
O 122 17.1718 6.06981 8.55733
O 122 17.1718 6.06981 8.55733
O 124 18.4986 5.2844799999999985 1.1411999999999978
O 129 0.9225999999999956 9.54337 13.7576
O 129 0.9225999999999956 9.54337 13.7576
O 130 13.131899999999998 0.9050999999999974 11.404900000000001
O 131 18.0061 14.313199999999998 8.97344
O 132 9.46011 7.963239999999999 15.965
O 132 9.46011 7.963239999999999 15.965
O 133 1.4720000000000013 10.600199999999997 11.6086
O 133 1.4720000000000013 10.600199999999997 11.6086
O 134 3.0710200000000007 7.6479 2.0589000000000013
O 135 20.2007 9.86721 11.8188
O 137 16.7114 2.5044199999999996 3.3493899999999996
O 138 11.210400000000003 8.011950000000002 17.754
O 138 11.210400000000003 8.011950000000002 17.754
O 139 2.0470000000000006 7.963730000000002 6.880240000000001
O 139 2.0470000000000006 7.963730000000002 6.880240000000001
O 140 1.2885999999999953 7.01904 8.99698
O 140 1.2885999999999953 7.01904 8.99698
O 142 17.817000000000004 0.7507000000000019 10.1536
O 142 17.817000000000004 0.7507000000000019 10.1536
O 145 18.831500000000002 9.510290000000001 14.3244
O 148 14.595899999999997 7.90455 19.517999999999997
O 149 7.92548 4.480139999999999 18.693700000000003
O 150 1.7842999999999947 7.143470000000001 14.144299999999998
O 150 1.7842999999999947 7.143470000000001 14.144299999999998
O 151 5.547219999999999 2.5704600000000006 16.6296
O 153 13.462900000000001 3.3144899999999993 9.973780000000001
O 154 4.25074 10.438599999999997 5.725660000000001
O 157 17.397299999999998 0.3487999999999971 2.33774
O 157 17.397299999999998 0.3487999999999971 2.33774
O 158 17.3212 13.3798 16.633
O 158 17.3212 13.3798 16.633
O 159 9.11582 6.508869999999998 17.781299999999998
O 159 9.11582 6.508869999999998 17.781299999999998
O 159 9.11582 6.508869999999998 17.781299999999998
O 161 15.552400000000002 1.9513700000000007 10.462799999999998
O 162 6.74174 1.0253999999999976 8.773970000000002
O 162 6.74174 1.0253999999999976 8.773970000000002
O 163 12.824299999999997 1.642400000000002 1.1601999999999961
O 163 12.824299999999997 1.642400000000002 1.1601999999999961
O 168 5.45654 6.502649999999999 7.0758399999999995
O 169 2.85679 20.3096 0.34790000000000276
O 172 0.8475999999999999 0.5771999999999977 11.695800000000002
O 173 13.105900000000002 7.695330000000002 0.14439999999999742
O 173 13.105900000000002 7.695330000000002 0.14439999999999742
O 173 13.105900000000002 7.695330000000002 0.14439999999999742
O 174 7.983999999999998 0.26310000000000144 0.9628999999999976
O 177 8.55858 5.028479999999998 15.943300000000004
O 178 6.709299999999999 17.781199999999995 6.9307300000000005
O 178 6.709299999999999 17.781199999999995 6.9307300000000005
O 180 5.4153400000000005 8.94669 18.962
O 182 9.07984 8.573040000000002 18.9641
O 183 10.9057 9.05207 6.5931
O 184 4.633659999999999 11.587799999999998 7.79607
O 185 14.123500000000003 0.42620000000000147 20.760500000000004
O 185 14.123500000000003 0.42620000000000147 20.760500000000004
O 186 1.4095000000000013 14.678300000000004 10.0441
O 186 1.4095000000000013 14.678300000000004 10.0441
O 188 20.2105 11.535099999999996 1.8744999999999976
O 189 18.533600000000003 3.48939 15.227799999999998
O 190 17.973899999999997 5.514060000000001 11.2351
O 191 11.3231 9.95184 4.2500800000000005
O 191 11.3231 9.95184 4.2500800000000005
O 192 6.554790000000001 20.5076 2.5720199999999984
O 193 19.0551 3.7231699999999996 20.543400000000002
O 195 1.2931999999999988 8.588150000000002 20.3362
O 195 1.2931999999999988 8.588150000000002 20.3362
O 195 1.2931999999999988 8.588150000000002 20.3362
O 198 1.4294999999999973 11.758800000000004 1.363199999999999
O 198 1.4294999999999973 11.758800000000004 1.363199999999999
O 201 11.083700000000004 16.790000000000003 5.252779999999998
O 202 6.267579999999999 13.823899999999998 9.092220000000001
O 202 6.267579999999999 13.823899999999998 9.092220000000001
O 204 8.877399999999998 17.1624 6.39282
O 204 8.877399999999998 17.1624 6.39282
O 205 9.69005 17.369600000000002 11.978999999999996
O 205 9.69005 17.369600000000002 11.978999999999996
O 206 8.68872 5.333970000000001 4.332129999999999
O 207 3.520599999999998 5.40494 19.594800000000003
O 208 1.2327999999999975 17.228800000000003 13.415099999999999
O 210 15.202299999999997 11.631800000000002 6.87743
O 210 15.202299999999997 11.631800000000002 6.87743
O 214 10.116899999999998 12.113200000000003 6.4313199999999995
O 216 11.421699999999998 20.803899999999995 9.613119999999999
O 216 11.421699999999998 20.803899999999995 9.613119999999999
O 217 9.406299999999998 10.443000000000001 14.676100000000002
O 218 14.377599999999997 6.447489999999998 8.54685
O 218 14.377599999999997 6.447489999999998 8.54685
O 219 5.9796499999999995 0.18430000000000035 15.931099999999997
O 220 16.130999999999997 11.891900000000003 12.3961
O 220 16.130999999999997 11.891900000000003 12.3961
O 221 4.455300000000001 5.863620000000001 0.47760000000000247
O 222 11.359199999999998 20.0737 18.5671
O 222 11.359199999999998 20.0737 18.5671
O 223 11.7944 20.383400000000005 14.5669
O 223 11.7944 20.383400000000005 14.5669
O 223 11.7944 20.383400000000005 14.5669
O 224 3.658850000000001 7.878800000000002 20.517099999999996
O 224 3.658850000000001 7.878800000000002 20.517099999999996
O 224 3.658850000000001 7.878800000000002 20.517099999999996
O 229 6.144300000000001 11.120900000000002 17.268399999999996
O 230 0.5094999999999956 4.157579999999999 9.831689999999998
O 232 6.58915 11.2165 1.262599999999999
O 234 7.766400000000001 9.330769999999998 16.7227
O 234 7.766400000000001 9.330769999999998 16.7227
O 237 18.329000000000004 8.193909999999999 7.962530000000001
O 238 13.0348 12.831799999999998 7.54665
O 239 19.943099999999998 0.22679999999999723 6.172689999999999
O 243 18.0288 19.4654 1.2942999999999998
O 244 5.65812 16.4791 8.56277
O 244 5.65812 16.4791 8.56277
O 245 11.041799999999999 1.7909999999999968 18.052699999999998
O 247 18.6716 16.2651 10.6536
O 248 18.2993 17.1151 0.9703000000000017
O 249 13.827700000000004 3.39002 12.043800000000001
O 249 13.827700000000004 3.39002 12.043800000000001
O 250 14.981199999999998 5.97523 13.0412
O 250 14.981199999999998 5.97523 13.0412
O 252 6.024139999999999 19.359599999999997 8.819120000000002
O 252 6.024139999999999 19.359599999999997 8.819120000000002
O 253 13.596100000000003 3.553000000000001 0.2704000000000022
O 253 13.596100000000003 3.553000000000001 0.2704000000000022
O 253 13.596100000000003 3.553000000000001 0.2704000000000022
O 254 10.579899999999999 12.9072 3.7802499999999988
O 256 0.28769999999999385 15.923399999999997 7.71884
O 257 1.5642999999999958 4.601939999999999 18.326400000000003
O 258 12.205700000000004 18.566399999999998 9.369710000000001
O 258 12.205700000000004 18.566399999999998 9.369710000000001
O 259 11.381600000000002 2.034209999999998 9.934540000000002
O 259 11.381600000000002 2.034209999999998 9.934540000000002
O 260 7.73094 12.6694 7.760570000000001
O 261 10.904300000000003 14.472199999999997 10.6542
O 262 19.2345 20.477699999999995 8.34647
O 266 7.629989999999999 18.2364 11.166799999999999
O 267 12.7242 10.1082 0.04889999999999617
O 268 13.354299999999999 16.752599999999997 9.742740000000001
O 269 11.680800000000001 7.31268 4.817640000000001
O 273 0.6772999999999954 6.62519 5.645800000000001
O 277 6.284269999999999 20.7086 6.80855
O 280 15.464400000000001 20.776300000000003 11.168200000000002
O 283 16.570199999999996 4.151820000000001 0.14059999999999917
O 284 19.601899999999997 13.617799999999999 14.496500000000001
O 284 19.601899999999997 13.617799999999999 14.496500000000001
O 287 12.1741 17.7587 7.036640000000002
O 288 17.0615 16.355 12.9083
O 288 17.0615 16.355 12.9083
O 290 11.289399999999997 10.907300000000003 1.8470000000000013
O 291 4.895479999999999 10.7852 12.384200000000003
O 292 10.3323 21.133999999999997 16.6245
O 292 10.3323 21.133999999999997 16.6245
O 293 13.8045 6.29458 17.662199999999995
O 295 20.0862 6.54393 3.9964499999999994
O 299 14.834399999999999 13.714499999999997 13.593500000000002
O 299 14.834399999999999 13.714499999999997 13.593500000000002
O 300 18.252 10.9622 17.372200000000003
O 302 1.7642999999999986 17.216999999999995 9.17362
O 305 20.656900000000004 10.423100000000002 8.919329999999999
O 306 18.9633 5.86534 15.7377
O 306 18.9633 5.86534 15.7377
O 307 15.261700000000001 16.1987 4.215320000000002
O 308 16.6731 9.980259999999998 16.011
O 309 3.867609999999999 9.36384 7.884899999999998
O 309 3.867609999999999 9.36384 7.884899999999998
O 309 3.867609999999999 9.36384 7.884899999999998
O 312 17.808000000000003 6.1893899999999995 20.379
O 314 18.617 15.181000000000001 15.729499999999998
O 314 18.617 15.181000000000001 15.729499999999998
O 314 18.617 15.181000000000001 15.729499999999998
O 316 1.6480000000000032 6.514949999999999 0.4356000000000009
O 319 10.0339 10.202299999999997 17.5177
O 321 12.120500000000003 18.608100000000004 16.569799999999997
O 321 12.120500000000003 18.608100000000004 16.569799999999997
O 323 17.3942 0.5161000000000016 5.79693
O 324 18.071099999999998 16.166999999999998 4.921409999999998
O 325 12.439899999999998 2.14302 3.4239800000000002
O 326 21.0558 20.635900000000003 20.5281
O 326 21.0558 20.635900000000003 20.5281
O 326 21.0558 20.635900000000003 20.5281
O 327 19.152399999999997 19.825600000000005 14.137600000000003
O 327 19.152399999999997 19.825600000000005 14.137600000000003
O 329 14.938599999999997 8.383320000000001 17.071700000000003
O 329 14.938599999999997 8.383320000000001 17.071700000000003
O 331 11.882900000000003 16.5341 11.7118
O 332 17.5252 14.311400000000003 11.119299999999999
O 333 0.7126000000000019 8.90698 10.3019
O 333 0.7126000000000019 8.90698 10.3019
O 333 0.7126000000000019 8.90698 10.3019
O 335 5.896060000000002 5.74999 4.976499999999998
O 337 0.6155999999999935 7.680780000000002 12.091400000000004
O 337 0.6155999999999935 7.680780000000002 12.091400000000004
O 337 0.6155999999999935 7.680780000000002 12.091400000000004
O 339 17.780600000000003 2.4699799999999996 12.776099999999996
O 342 20.893799999999995 17.194100000000002 10.174200000000003
O 343 8.30694 12.647900000000003 5.336449999999999
O 343 8.30694 12.647900000000003 5.336449999999999
O 344 10.453 0.34729999999999706 11.633100000000002
O 344 10.453 0.34729999999999706 11.633100000000002
O 345 13.965500000000002 10.2055 15.847100000000001
O 347 5.716719999999999 13.7422 3.967410000000001
O 348 4.974149999999998 8.82685 13.685600000000004
O 352 4.822860000000002 0.8153999999999968 18.078
O 354 18.3107 8.0125 10.299299999999999
O 356 14.2197 10.643 11.718799999999998
O 357 21.086700000000004 8.804869999999998 18.6228
O 357 21.086700000000004 8.804869999999998 18.6228
O 357 21.086700000000004 8.804869999999998 18.6228
O 359 16.119700000000005 3.9745099999999987 11.885099999999998
O 359 16.119700000000005 3.9745099999999987 11.885099999999998
O 360 20.2223 1.7024999999999935 9.9417
O 361 9.90298 19.1501 10.1923
O 361 9.90298 19.1501 10.1923
O 361 9.90298 19.1501 10.1923
O 364 10.0972 19.0898 15.003399999999996
O 364 10.0972 19.0898 15.003399999999996
O 364 10.0972 19.0898 15.003399999999996
O 365 14.921299999999999 0.15440000000000254 8.78951
O 366 13.786100000000001 9.29306 4.1172
O 367 7.1476299999999995 9.82209 14.540299999999998
O 368 13.2576 15.162099999999999 7.81165
O 369 9.047549999999998 1.6674999999999969 19.7497
O 374 15.3152 5.765150000000002 15.7366
O 377 7.60595 0.05460000000000065 17.476700000000005
O 377 7.60595 0.05460000000000065 17.476700000000005
O 379 2.877220000000001 9.33231 18.5891
O 379 2.877220000000001 9.33231 18.5891
O 380 21.021399999999996 16.767800000000005 0.8530999999999977
O 384 3.735579999999999 12.398599999999998 0.8814999999999955
O 385 4.284410000000001 6.968509999999998 18.0892
O 391 12.471599999999999 8.63859 2.1710700000000003
O 391 12.471599999999999 8.63859 2.1710700000000003
O 392 16.7961 9.31455 18.6688
O 393 13.4205 5.712900000000001 20.026099999999996
O 393 13.4205 5.712900000000001 20.026099999999996
O 395 18.8055 20.620299999999997 4.033989999999999
O 395 18.8055 20.620299999999997 4.033989999999999
O 397 12.7315 3.633099999999999 18.7356
O 401 13.090500000000002 6.435510000000001 2.8058499999999995
O 403 8.266299999999998 19.8227 7.798460000000002
O 403 8.266299999999998 19.8227 7.798460000000002
O 404 9.910790000000002 8.441109999999998 3.3917
O 404 9.910790000000002 8.441109999999998 3.3917
O 404 9.910790000000002 8.441109999999998 3.3917
O 406 11.843700000000002 11.569799999999997 15.937000000000001
O 407 0.12270000000000181 15.2822 14.863899999999997
O 407 0.12270000000000181 15.2822 14.863899999999997
O 409 16.779800000000005 16.718799999999998 16.888299999999997
O 410 17.261599999999998 7.770430000000001 14.8081
O 411 20.6964 2.6693299999999986 12.111299999999996
O 411 20.6964 2.6693299999999986 12.111299999999996
O 413 9.64601 3.230640000000001 10.8843
O 413 9.64601 3.230640000000001 10.8843
O 414 1.617600000000003 6.888650000000002 18.611900000000002
O 414 1.617600000000003 6.888650000000002 18.611900000000002
O 415 6.752669999999998 0.005699999999997374 19.879900000000003
O 415 6.752669999999998 0.005699999999997374 19.879900000000003
O 416 0.5803000000000011 8.36766 2.400410000000001
O 419 9.133210000000002 7.683769999999999 5.2882
O 419 9.133210000000002 7.683769999999999 5.2882
O 422 17.3498 12.9845 6.596820000000001
O 424 7.389579999999999 20.5536 10.2396
O 424 7.389579999999999 20.5536 10.2396
O 425 16.5919 14.2786 4.583560000000002
O 425 16.5919 14.2786 4.583560000000002
O 426 17.238899999999997 5.41863 14.075100000000003
O 427 13.3289 0.5542000000000016 18.4631
O 427 13.3289 0.5542000000000016 18.4631
O 427 13.3289 0.5542000000000016 18.4631
O 429 10.368300000000001 8.834810000000001 1.0043999999999969
O 429 10.368300000000001 8.834810000000001 1.0043999999999969
O 431 15.953700000000001 11.9451 17.721299999999996
O 433 0.615000000000002 0.226700000000001 14.7899
O 435 1.012599999999999 0.791400000000003 2.958400000000001
O 436 15.229800000000001 1.9330700000000007 1.5060999999999964
O 436 15.229800000000001 1.9330700000000007 1.5060999999999964
O 438 14.514700000000001 20.9055 15.465700000000002
O 438 14.514700000000001 20.9055 15.465700000000002
O 440 11.339000000000002 17.533200000000004 14.040699999999998
O 440 11.339000000000002 17.533200000000004 14.040699999999998
O 441 14.597599999999996 2.3980999999999995 19.919700000000002
O 441 14.597599999999996 2.3980999999999995 19.919700000000002
O 441 14.597599999999996 2.3980999999999995 19.919700000000002
O 443 20.4123 5.482299999999999 14.217899999999997
O 443 20.4123 5.482299999999999 14.217899999999997
O 443 20.4123 5.482299999999999 14.217899999999997
O 445 20.9851 8.76332 4.791779999999999
O 445 20.9851 8.76332 4.791779999999999
O 446 15.529399999999999 14.645099999999996 17.529499999999995
O 447 2.100089999999998 7.9007000000000005 4.167870000000001
O 451 15.657999999999998 9.50824 0.20249999999999346
O 452 7.03209 17.9134 2.2961300000000016
O 453 4.7751100000000015 18.900500000000005 2.449539999999999
O 454 19.614699999999996 9.48086 3.1129399999999983
O 456 2.966149999999999 8.900110000000002 15.183600000000002
O 459 1.160899999999998 0.7593000000000032 0.46119999999999806
O 459 1.160899999999998 0.7593000000000032 0.46119999999999806
O 460 13.773700000000002 4.1555399999999985 2.7636900000000004
O 462 20.750899999999998 11.316100000000002 4.302209999999999
O 464 7.36233 19.214499999999997 0.40729999999999933
O 464 7.36233 19.214499999999997 0.40729999999999933
O 465 3.21425 12.442000000000004 9.61376
O 465 3.21425 12.442000000000004 9.61376
O 467 15.6388 10.0337 13.713899999999999
O 467 15.6388 10.0337 13.713899999999999
O 467 15.6388 10.0337 13.713899999999999
O 468 15.847800000000003 18.518200000000004 13.217600000000001
O 469 3.2920799999999986 5.85192 12.729499999999998
O 470 5.898900000000001 0.9543999999999997 0.8719000000000037
O 473 4.146989999999999 10.214200000000002 21.1155
O 473 4.146989999999999 10.214200000000002 21.1155
O 474 19.8334 0.1232999999999933 1.503700000000002
O 474 19.8334 0.1232999999999933 1.503700000000002
O 477 15.002999999999997 7.84423 14.907900000000001
O 477 15.002999999999997 7.84423 14.907900000000001
O 479 16.0373 7.191010000000002 10.2194
O 479 16.0373 7.191010000000002 10.2194
O 479 16.0373 7.191010000000002 10.2194
O 480 10.205200000000001 4.335899999999999 14.225800000000003
O 481 20.8899 17.369700000000005 19.248299999999997
O 482 1.9099600000000017 10.6801 8.85407
O 482 1.9099600000000017 10.6801 8.85407
O 483 16.140600000000003 10.060500000000001 10.438399999999998
O 484 12.9678 1.7171999999999983 14.300099999999997
O 485 13.267599999999998 4.498480000000001 14.047099999999997
O 487 8.158539999999999 20.651099999999996 15.214499999999997
O 488 18.8351 18.7542 10.032900000000001
O 491 2.838449999999998 4.630410000000001 9.679840000000002
O 491 2.838449999999998 4.630410000000001 9.679840000000002
O 493 9.426269999999999 14.836099999999998 4.943860000000001
O 494 0.9416999999999973 13.074200000000001 3.3324
O 495 16.937 20.0898 9.373360000000002
O 495 16.937 20.0898 9.373360000000002
O 498 2.95692 8.35708 12.158799999999996
O 498 2.95692 8.35708 12.158799999999996
O 499 11.564600000000002 13.824299999999997 5.960069999999998
O 499 11.564600000000002 13.824299999999997 5.960069999999998
O 500 19.9862 1.6903000000000006 3.8783400000000015
O 500 19.9862 1.6903000000000006 3.8783400000000015
O 500 19.9862 1.6903000000000006 3.8783400000000015
O 502 1.8669999999999973 6.213829999999998 10.922999999999998
O 502 1.8669999999999973 6.213829999999998 10.922999999999998
O 502 1.8669999999999973 6.213829999999998 10.922999999999998
O 502 1.8669999999999973 6.213829999999998 10.922999999999998
O 503 18.608100000000004 2.3747299999999996 5.4405
O 503 18.608100000000004 2.3747299999999996 5.4405
O 504 8.34985 1.2264999999999944 11.524200000000004
O 504 8.34985 1.2264999999999944 11.524200000000004
O 505 13.5504 11.9342 14.067800000000002
O 507 20.289600000000004 15.919300000000003 17.123299999999997
O 507 20.289600000000004 15.919300000000003 17.123299999999997
O 508 9.125699999999998 20.5209 19.434499999999996
O 508 9.125699999999998 20.5209 19.434499999999996
O 509 18.9594 7.455439999999999 12.784600000000001
O 511 8.077920000000002 17.5765 8.95798
O 511 8.077920000000002 17.5765 8.95798
O 512 10.3369 4.264140000000001 17.661799999999996
O 513 9.713089999999998 0.7478999999999942 14.042199999999998
O 514 16.9712 10.503499999999999 8.051770000000001
O 515 20.742 6.91432 17.246599999999997
O 515 20.742 6.91432 17.246599999999997
O 515 20.742 6.91432 17.246599999999997
O 516 6.13495 6.498840000000001 20.001299999999997
O 520 15.549299999999999 18.6654 15.811699999999998
O 525 5.320450000000001 8.7107 16.372200000000003
O 526 14.226400000000002 9.61149 7.109660000000002
O 526 14.226400000000002 9.61149 7.109660000000002
O 527 6.567 2.53031 10.444599999999998
O 528 14.116400000000002 19.668199999999995 17.4173
O 528 14.116400000000002 19.668199999999995 17.4173
O 529 2.5511599999999994 5.69106 7.511120000000002
O 532 17.8055 13.0354 19.1638
O 532 17.8055 13.0354 19.1638
O 533 11.072700000000001 8.10175 20.2711
O 533 11.072700000000001 8.10175 20.2711
O 534 19.538099999999996 7.3906600000000005 1.856900000000003
O 534 19.538099999999996 7.3906600000000005 1.856900000000003
O 535 20.974299999999996 7.785029999999999 15.289799999999996
O 535 20.974299999999996 7.785029999999999 15.289799999999996
O 535 20.974299999999996 7.785029999999999 15.289799999999996
O 536 9.799980000000001 19.575100000000003 12.755599999999998
O 536 9.799980000000001 19.575100000000003 12.755599999999998
O 539 6.757189999999998 8.21563 5.51277
O 540 19.176799999999997 4.382680000000001 12.860200000000003
O 540 19.176799999999997 4.382680000000001 12.860200000000003
O 540 19.176799999999997 4.382680000000001 12.860200000000003
O 543 4.775690000000001 14.4008 7.668969999999998
O 543 4.775690000000001 14.4008 7.668969999999998
O 545 20.058599999999995 13.7957 11.603800000000003
O 547 16.1185 11.930400000000002 4.568180000000002
O 548 10.105 18.345899999999997 7.88137
O 548 10.105 18.345899999999997 7.88137
O 548 10.105 18.345899999999997 7.88137
O 549 2.30321 3.09778 11.519099999999998
O 551 8.90586 10.6202 2.6426499999999997
O 551 8.90586 10.6202 2.6426499999999997
O 552 4.512599999999999 11.303099999999997 18.971299999999996
O 553 2.11449 13.177899999999998 11.764099999999996
O 554 3.9839200000000012 17.9954 9.148790000000002
O 555 15.528400000000001 3.57826 14.1521
O 557 13.251500000000004 15.769200000000001 5.616949999999999
O 558 6.16986 15.706 10.7772
O 561 7.731729999999999 7.146370000000001 2.96434
O 562 16.4674 7.5466799999999985 12.6572
O 562 16.4674 7.5466799999999985 12.6572
O 563 20.5354 9.647859999999998 0.4134000000000029
O 564 5.305150000000001 19.873500000000003 0.2738000000000014
O 564 5.305150000000001 19.873500000000003 0.2738000000000014
O 567 4.22092 18.3912 7.001270000000002
O 568 5.382459999999998 10.91 15.163500000000003
O 573 1.9585100000000004 9.686229999999998 5.606480000000001
O 573 1.9585100000000004 9.686229999999998 5.606480000000001
O 574 20.114900000000002 19.0228 2.5557799999999986
O 574 20.114900000000002 19.0228 2.5557799999999986
O 575 18.218 3.1561699999999995 10.413900000000002
O 577 7.15766 1.9997499999999988 18.345499999999998
O 577 7.15766 1.9997499999999988 18.345499999999998
O 578 18.465500000000002 7.73686 18.372399999999995
O 581 20.227500000000003 19.943499999999997 16.004100000000005
O 581 20.227500000000003 19.943499999999997 16.004100000000005
O 584 6.515180000000001 11.214099999999998 4.264800000000001
O 584 6.515180000000001 11.214099999999998 4.264800000000001
O 590 15.120100000000004 4.62256 19.002099999999995
O 591 2.342040000000001 9.536629999999999 1.114600000000003
O 591 2.342040000000001 9.536629999999999 1.114600000000003
O 592 15.837399999999999 8.35342 8.09824
O 592 15.837399999999999 8.35342 8.09824
O 592 15.837399999999999 8.35342 8.09824
O 594 15.569199999999999 15.675099999999997 14.960199999999997
O 596 17.206 14.065700000000003 13.939600000000002
O 596 17.206 14.065700000000003 13.939600000000002
O 598 6.258199999999999 5.101420000000001 16.9813
O 601 15.790400000000002 12.014300000000002 15.1643
O 602 20.3398 14.951800000000002 9.63475
O 602 20.3398 14.951800000000002 9.63475
O 603 14.9648 8.248850000000001 1.8035999999999959
O 603 14.9648 8.248850000000001 1.8035999999999959
O 604 11.493100000000002 3.86515 1.9445000000000014
O 605 3.9408700000000003 14.942499999999999 10.0957
O 605 3.9408700000000003 14.942499999999999 10.0957
O 606 20.4907 4.078219999999998 5.135749999999998
O 608 14.4543 13.715 5.869019999999999
O 608 14.4543 13.715 5.869019999999999
O 610 8.86766 2.947210000000002 13.0917
O 611 20.303300000000004 6.66807 10.4832
O 613 0.08670000000000044 4.8607499999999995 16.500899999999998
O 613 0.08670000000000044 4.8607499999999995 16.500899999999998
O 614 10.229 20.2767 0.7286000000000001
O 615 15.148500000000002 15.697799999999997 12.1431
O 615 15.148500000000002 15.697799999999997 12.1431
O 616 12.785599999999999 7.3630700000000004 15.746399999999998
O 616 12.785599999999999 7.3630700000000004 15.746399999999998
O 617 3.868410000000001 9.94755 10.165099999999999
O 617 3.868410000000001 9.94755 10.165099999999999
O 617 3.868410000000001 9.94755 10.165099999999999
O 620 14.876500000000004 7.019940000000002 3.9591199999999986
O 621 19.406299999999998 1.0488 15.3813
O 625 6.004239999999999 12.703700000000001 6.037189999999999
O 625 6.004239999999999 12.703700000000001 6.037189999999999
O 627 10.736 13.4331 8.43392
O 628 19.7253 1.2804999999999964 20.1446
O 629 20.2135 17.4875 14.760099999999998
O 629 20.2135 17.4875 14.760099999999998
O 632 16.406299999999998 17.6621 5.6578599999999994
O 634 19.811199999999996 20.795399999999997 10.884399999999996
O 634 19.811199999999996 20.795399999999997 10.884399999999996
O 635 16.4254 17.8259 10.851600000000001
O 637 17.220499999999998 7.4576899999999995 1.0341000000000022
O 642 0.3539999999999992 12.279399999999999 10.4372
O 643 11.428099999999997 9.35698 15.544300000000003
O 643 11.428099999999997 9.35698 15.544300000000003
O 644 9.368779999999997 12.279999999999998 16.074300000000004
O 645 18.576400000000003 12.887200000000004 0.44590000000000174
O 646 7.664539999999999 12.688599999999997 2.8875300000000017
O 646 7.664539999999999 12.688599999999997 2.8875300000000017
O 649 16.936000000000003 1.4296000000000006 0.03410000000000224
O 649 16.936000000000003 1.4296000000000006 0.03410000000000224
O 650 4.1355 7.868179999999999 5.585229999999999
O 650 4.1355 7.868179999999999 5.585229999999999
O 651 20.547700000000003 13.450599999999998 16.7944
O 653 14.187499999999996 7.330439999999999 6.321809999999999
O 654 15.272699999999997 1.420499999999997 17.644500000000004
O 654 15.272699999999997 1.420499999999997 17.644500000000004
O 655 19.8612 3.756350000000001 2.7995100000000015
O 655 19.8612 3.756350000000001 2.7995100000000015
O 658 9.99156 16.404300000000003 9.93825
O 658 9.99156 16.404300000000003 9.93825
O 659 13.936600000000002 20.603999999999996 13.335800000000003
O 666 11.456199999999999 2.7662499999999994 12.285599999999999
O 666 11.456199999999999 2.7662499999999994 12.285599999999999
O 668 13.503899999999998 18.6602 14.784600000000001
O 668 13.503899999999998 18.6602 14.784600000000001
O 671 11.219899999999999 0.4018999999999977 20.2679
