6
Lattice="21.2067 0.0 0.0 0.0 21.2067 0.0 0.0 0.0 21.2067"
Si 672 3.2744999999999997 5.47373 15.4025
O 179 4.258140000000001 6.878609999999998 15.227100000000004
O 272 4.342089999999999 4.4320699999999995 14.654
O 278 2.2847299999999997 6.315049999999999 16.532
O 501 1.9614599999999989 4.720949999999998 14.7058
O 623 3.709019999999999 4.6091799999999985 16.938
