6
Lattice="21.2067 0.0 0.0 0.0 21.2067 0.0 0.0 0.0 21.2067"
Si 705 16.586499999999997 15.801399999999997 5.2126100000000015
O 74 16.123100000000004 15.0399 6.5868199999999995
O 307 15.270099999999996 16.0789 4.154859999999999
O 324 18.146399999999996 15.9575 4.9192399999999985
O 425 16.5746 14.142399999999999 4.439879999999999
O 632 16.544700000000002 17.492100000000004 5.561330000000002
