12
Lattice="22.5427 0.0 0.0 0.0 22.5427 0.0 0.0 0.0 22.5427"
Si 721 10.350199999999997 7.77675 12.9312
Si 824 12.853199999999998 8.006789999999999 13.1786
O 90 9.316390000000002 8.13767 14.219899999999999
O 224 13.055000000000003 8.957330000000002 14.6069
O 257 11.584900000000001 7.013680000000001 13.941399999999998
O 257 11.584900000000001 7.013680000000001 13.941399999999998
O 278 11.5622 8.79073 12.4539
O 278 11.5622 8.79073 12.4539
O 385 14.378600000000002 8.65073 12.763699999999996
O 515 9.17549 8.686130000000002 11.971500000000002
O 613 10.215900000000001 6.551300000000001 11.907300000000003
O 623 13.1431 6.697120000000002 12.157999999999998
