264
Lattice="21.7645 0.0 0.0 0.0 21.7645 0.0 0.0 0.0 21.7645"
Si 672  19.52040 19.14100 18.74280
Si 673  17.23950 18.79250 19.90060
Si 674  17.57200 19.98440 17.08660
Si 675  20.54960 16.60610 17.73360
Si 676  19.74980 18.38190 15.79930
Si 677  21.07920 21.89040 19.60330
Si 678  21.92310 22.59770 22.36710
Si 679  23.10690 19.77370 20.16520
Si 681  19.09400 23.59829 18.13960
Si 682  20.72120 25.84007 17.22840
Si 684  20.86560 23.26020 15.74100
Si 686  16.21820 22.82140 17.26970
Si 687  18.53730 22.38620 15.32100
Si 688  17.28160 23.92913 13.46550
Si 689  17.68380 20.96850 12.86560
Si 690  18.90530 18.61470 12.86430
Si 691  15.71140 22.02550 10.88150
Si 693  16.16860 18.41580 13.24590
Si 695  17.65310 21.14940 9.55732
Si 696  20.40070 19.81400 9.59954
Si 698  17.14600 20.12080 6.72457
Si 700  14.82860 19.88740 8.73735
Si 701  12.50730 22.00460 10.26180
Si 703  11.44750 23.89427 9.16282
Si 705  14.49730 23.53155 9.06367
Si 706  12.06700 19.93770 12.32450
Si 707  11.01380 20.29040 8.17438
Si 708  9.28332 21.16470 12.37710
Si 709  9.56909 23.68405 12.29470
Si 710  8.02068 20.70780 15.04580
Si 711  6.87013 19.59640 11.05120
Si 712  8.53402 23.20410 9.67446
Si 714  7.36207 21.86130 7.34075
Si 715  6.55448 24.93306 11.00720
Si 716  8.41609 26.43198 9.98413
Si 717  5.93396 26.50360 8.70538
Si 718  10.49240 28.58217 9.74694
Si 719  9.50058 26.16491 6.93671
Si 720  6.96634 26.81413 12.97530
Si 721  4.38007 26.58329 12.12650
Si 722  8.44579 29.43319 12.62360
Si 723  6.93940 30.62321 10.49250
Si 724  11.37870 29.32516 12.59230
Si 725  6.20571 30.72665 14.40870
Si 727  5.23603 32.28780 12.62570
Si 729  6.23756 33.30020 15.32730
Si 731  8.19088 29.43657 16.26210
Si 732  4.77691 28.90803 16.65690
Si 733  3.35522 30.55651 12.63960
Si 734  0.36890 30.10147 13.56090
Si 735  -0.88640 32.33490 13.07510
Si 736  -0.62050 30.09714 10.66040
Si 737  -0.55710 27.29226 12.64330
Si 738  -0.01590 28.49637 16.24420
Si 739  2.00063 30.03215 17.12240
Si 740  -2.02410 30.39918 17.25600
Si 741  -3.91680 28.89748 18.78560
Si 742  -4.00810 30.41386 14.97370
Si 743  -2.94870 31.41710 20.08670
Si 744  -1.04460 33.36980 18.60380
Si 745  -2.94500 33.76360 16.34780
Si 746  1.35350 31.78810 19.50500
Si 747  -1.20840 33.31450 21.66780
Si 748  -0.24820 36.18130 19.57180
Si 749  1.55490 37.67580 18.00880
Si 750  1.41310 35.18630 21.77680
Si 751  2.74583 36.27800 19.89290
Si 753  -2.71020 36.00410 21.33140
Si 756  -0.73620 37.37530 22.38450
Si 757  -2.24700 37.21620 24.46125
Si 758  0.66110 38.35780 24.60168
Si 760  0.42010 40.13270 22.17620
Si 761  -2.50540 40.55040 23.19850
Si 762  3.47304 41.39330 21.75440
Si 763  3.17369 44.23410 22.35150
Si 765  5.24328 38.95400 22.49050
Si 766  8.11861 39.24130 22.55470
Si 767  5.15521 36.87470 24.67061
Si 770  5.54777 37.83000 19.57560
Si 771  7.02647 41.54470 22.26500
Si 772  9.09572 42.68570 20.69490
Si 773  6.09416 42.70650 24.83206
Si 774  3.84908 44.89610 24.68527
Si 776  3.10334 46.17919 26.83261
Si 777  5.92681 46.02326 22.90270
Si 778  2.93811 43.17710 26.99298
Si 779  4.55064 43.66450 29.50372
Si 782  5.87155 45.96625 28.25707
Si 784  5.26876 44.03860 32.44950
Si 786  1.58310 44.47530 30.16993
Si 787  5.84326 40.92690 30.63207
Si 788  4.43954 39.31710 32.84850
Si 789  2.00566 38.37270 31.84930
Si 791  6.11029 37.12530 31.95100
Si 792  5.75254 40.97430 35.57690
Si 793  3.79395 43.35360 34.73680
Si 794  1.40560 44.49020 35.48570
Si 795  1.56350 41.65320 35.18990
Si 796  5.26273 45.13750 36.71460
Si 798  3.74887 44.46620 39.10970
Si 799  3.50746 47.90747 37.06730
Si 801  1.43100 46.28598 37.85920
Si 802  3.77435 48.23648 40.06740
Si 803  4.29931 47.78311 42.78770
Si 804  5.95626 46.34530 40.26940
Si 805  5.54770 50.94901 41.09290
Si 809  7.83166 52.61915 40.66690
Si 810  4.07110 53.16581 42.17960
Si 812  7.88950 49.15916 41.64510
Si 813  7.98345 46.52375 42.72350
Si 814  10.26270 50.72321 42.16360
Si 815  7.40404 48.35119 38.65120
Si 816  10.03720 47.42647 38.73600
Si 817  9.89187 45.30090 40.86730
Si 818  10.90490 50.27512 37.77130
Si 819  12.49670 47.71250 36.76640
Si 821  13.14510 50.04666 35.87570
Si 822  13.43690 47.66106 34.20910
Si 823  10.54150 47.95124 34.61200
Si 824  13.43470 45.60700 38.71860
Si 825  11.63580 43.20830 38.88640
Si 827  12.60580 45.56980 41.65030
Si 828  15.00210 44.11250 42.98070
Si 829  11.73780 48.39279 42.66470
Si 830  14.38480 48.68903 43.09010
Si 832  11.29990 49.78277 45.22544
Si 833  9.52530 51.52818 44.99680
Si 835  13.67680 50.26392 45.90335
Si 837  12.25840 47.78804 47.08788
Si 838  15.11620 50.38344 47.99060
Si 839  15.77000 50.94928 43.93140
Si 840  16.32640 48.18883 46.63474
Si 841  18.93630 47.47138 47.07730
Si 842  16.21080 45.86549 44.98570
Si 843  18.40460 49.10887 44.85450
Si 844  18.35480 48.10595 42.32520
Si 845  21.04330 50.10075 45.08590
Si 847  18.62080 51.91694 44.47150
Si 848  19.46240 52.59019 47.36910
Si 849  16.39000 54.10870 45.32175
Si 850  16.30600 55.15210 42.42510
Si 851  17.02100 56.93830 46.71828
Si 852  14.64620 57.97050 48.50962
Si 853  18.72810 55.19710 48.74077
Si 854  21.19040 56.69390 47.92692
Si 855  23.80949 55.68630 48.83553
Si 856  21.51950 57.89330 50.95584
Si 857  24.11873 58.20930 48.09411
Si 858  25.05515 60.49380 49.40985
Si 859  23.30280 62.11060 51.25386
Si 861  21.27380 60.37980 53.02163
Si 863  21.65360 62.22860 48.51283
Si 865  18.68430 62.14020 47.97693
Si 866  21.29170 64.76470 46.74110
Si 869  21.21110 67.65438 47.71825
Si 870  18.60670 65.04470 48.26801
Si 871  18.76540 66.52550 46.28226
Si 872  18.13220 64.91880 43.99700
Si 873  15.34250 63.86640 45.36005
Si 875  13.04770 63.84490 43.98510
Si 876  15.64040 61.47120 47.21757
Si 877  14.76560 64.05240 48.42455
Si 878  13.71710 61.12730 44.84930
Si 879  10.93800 61.69030 45.18088
Si 880  14.18590 59.57960 42.40960
Si 881  12.99320 56.96440 42.49540
Si 882  14.90010 61.25450 40.14500
Si 883  17.34610 60.21450 43.68230
Si 884  14.96860 62.52950 37.67610
Si 885  12.92790 63.25370 40.91760
Si 886  10.29140 61.73900 40.99490
Si 887  9.60861 59.37530 42.83990
Si 888  10.40290 56.67870 43.93900
Si 889  9.80786 57.61340 40.25090
Si 890  12.29510 56.71890 39.85230
Si 891  8.38744 59.05000 38.09880
Si 893  10.61690 57.43820 37.39700
Si 894  8.20548 55.08390 39.23530
Si 895  11.25320 54.18530 39.04540
Si 896  13.73270 53.95840 38.59540
Si 897  10.91070 54.52980 36.14610
Si 898  11.25830 53.46639 42.05560
Si 899  13.20730 51.50490 39.50400
Si 900  15.37310 49.56336 39.41320
Si 901  14.26030 52.94138 42.08760
Si 902  14.66100 52.46572 36.61920
Si 903  13.63840 55.35550 35.95850
Si 907  14.26490 52.97199 33.29130
Si 908  13.86860 55.07330 31.49435
Si 910  15.79420 55.31000 33.79010
Si 912  16.61770 51.20877 32.91000
Si 913  11.61260 52.62189 31.80810
Si 916  13.74770 52.70474 29.59211
Si 917  9.15159 54.51030 31.55799
Si 918  9.76653 52.13166 29.17218
Si 919  7.33564 51.94675 27.82823
Si 920  8.92326 55.19050 28.93882
Si 921  11.33110 55.74410 29.59499
Si 922  8.76151 54.00230 26.30223
Si 923  9.71322 57.46370 27.28967
Si 925  6.26388 55.98790 30.26138
Si 926  5.56666 56.56950 32.91860
Si 927  5.44486 53.87320 27.87127
Si 928  3.06314 52.83514 29.55998
Si 930  5.33167 52.13433 25.20436
Si 931  3.43646 50.56626 24.58954
Si 934  6.59404 50.63532 23.19890
Si 935  4.99564 50.10046 27.17696
Si 937  7.01374 54.26790 23.67562
Si 939  5.87934 56.83800 22.40880
Si 940  8.84373 54.40050 21.14680
Si 941  4.97870 56.81680 19.49120
Si 942  4.59211 54.54150 17.57710
Si 943  0.74480 50.66122 25.98974
Si 944  0.70750 52.97433 27.71705
Si 945  0.00340 49.54127 28.88992
Si 946  -2.07160 50.23069 30.58015
Si 947  -2.60620 48.63152 27.91011
Si 948  1.73988 47.16338 29.03997
Si 951  -3.43700 45.57385 28.75710
Si 952  -1.23730 44.36950 28.39362
Si 953  -6.46010 45.71386 27.93128
Si 955  -2.74970 48.17626 32.47990
Si 957  -4.31140 51.97528 29.86602
Si 958  -5.38640 49.01391 33.96850
Si 961  -4.73970 49.10158 36.88650
Si 962  -2.39090 47.61173 36.45900
Si 963  -0.90220 53.92020 29.89341
Si 964  1.74445 54.87970 31.31859
Si 965  2.49173 57.49510 30.05794
Si 968  0.42470 56.58270 33.90020
Si 969  -1.08350 57.59240 31.97500
Si 972  3.12949 57.80260 33.68390
Si 973  -2.69770 55.97450 33.42440
Si 974  -0.46800 58.74420 36.19540
Si 975  -0.11860 61.00080 34.15860
Si 976  -3.47890 53.59830 34.03550
Si 977  -4.56060 57.91830 34.39310
Si 978  -3.99150 57.35090 30.99644
Si 979  -6.86620 57.92590 31.20653
Si 980  -7.64190 58.64990 34.06920
Si 981  -9.74510 56.94770 33.36730
Si 982  -5.35880 59.24240 36.59960
Si 983  -7.41680 57.61990 37.98500
Si 984  -3.87760 58.64030 39.16660
Si 985  -5.66090 55.76280 39.59650
Si 986  -10.54570 58.45160 30.82291
Si 987  -12.83895 60.01660 31.29640
Si 989  -4.64120 60.53110 32.77950
Si 990  -3.86850 61.02220 29.80425
Si 992  7.50394 57.92470 34.55910
Si 993  6.75227 58.56390 27.26392
Si 994  7.94878 60.57480 25.54068
Si 996  13.06110 55.67480 27.12945
Si 997  15.92790 46.98855 41.11860
Si 999  10.61760 65.44500 45.00290
Si 1000 24.26421 54.88060 45.78396
Si 1001 21.10770 48.63038 41.90030
Si 1002 8.81364 43.27350 39.68490
Si 1003 14.42240 44.92940 35.14660
Si 1004 0.25960 42.39670 37.69140
Si 1005 2.21013 40.37830 39.12700
Si 1006 1.73200 47.12903 33.89960
Si 1007 0.17980 43.72250 32.72300
