666
Lattice="23.3313 0.0 0.0 0.0 23.3313 0.0 0.0 0.0 23.3313"
O 0   6.56630 10.26480 10.19170
O 1   6.03863 12.63470 9.74841
O 2   5.84257 11.62180 12.18590
O 3   6.68239 8.59906 12.15220
O 4   7.63022 7.96660 9.65349
O 5   4.09242 11.11320 10.42250
O 6   8.93571 9.53844 11.40280
O 7   11.15620 9.31710 10.44340
O 8   10.77490 10.04230 13.05050
O 9   10.55140 7.56085 12.33870
O 10  9.51312 10.41480 8.70264
O 11  9.75564 8.43193 7.16334
O 12  9.91754 10.94450 6.17571
O 13  10.88400 11.84260 10.41800
O 14  7.57808 10.09180 6.92310
O 15  12.16010 10.53030 8.35334
O 16  14.13840 10.81000 9.88472
O 17  14.27510 9.71632 7.22540
O 18  13.41630 8.38566 9.24155
O 19  14.53920 6.39343 8.08627
O 20  12.58630 5.92254 9.59975
O 21  12.02520 7.09420 7.37856
O 22  15.78640 9.14045 10.92710
O 23  18.30370 8.61318 11.08640
O 24  15.72110 11.53840 11.94770
O 25  16.67040 6.75197 10.13610
O 26  13.68210 9.94869 12.43370
O 27  17.27240 8.74496 8.68987
O 28  16.64150 6.87258 12.65240
O 29  14.50770 6.12782 11.41940
O 30  15.22980 8.60008 13.94310
O 31  16.55980 4.40947 11.80720
O 32  16.30800 6.60775 15.25460
O 33  17.77110 8.55949 14.57620
O 34  19.91770 8.37000 13.28870
O 35  19.06590 6.32420 14.56900
O 36  20.04940 8.42508 15.88480
O 37  20.92250 10.36180 17.16770
O 38  22.73330 8.85936 16.10420
O 39  21.36140 10.62710 14.70710
O 40  22.19600 6.69866 15.01250
O 41  22.76130 4.31317 15.62640
O 42  24.71511 6.84852 15.49950
O 43  23.64240 5.16697 13.35720
O 44  20.89740 4.66062 13.84900
O 45  23.29560 6.87449 17.62330
O 46  25.03037 4.99691 17.18580
O 47  25.72754 7.10719 18.50150
O 48  20.70660 6.17842 17.91810
O 49  22.15300 6.58609 20.16870
O 50  24.60399 5.16896 19.76620
O 51  25.40295 3.21673 21.31530
O 52  26.79755 3.89821 19.07130
O 53  26.94580 5.42493 21.06910
O 54  28.99097 3.86991 21.24920
O 55  28.67702 5.40123 19.13410
O 56  29.43114 6.40957 21.64820
O 57  28.87802 8.74795 22.54120
O 58  31.10489 8.43171 21.27590
O 59  30.89570 7.65416 23.75180
O 60  32.77713 8.19649 25.38744
O 61  33.44190 7.98021 22.91070
O 62  32.28835 10.07770 23.56180
O 63  31.84367 5.78489 25.81747
O 64  32.74262 3.56586 25.45916
O 65  33.90420 6.71776 26.95024
O 66  30.40992 4.03282 24.61911
O 67  31.15508 7.96222 27.24473
O 68  32.55496 4.77347 23.22950
O 69  31.35063 3.09373 21.95470
O 70  33.47930 4.51010 20.87110
O 71  33.63920 2.27228 22.17970
O 72  35.09240 6.15902 23.71560
O 73  36.69480 4.26646 23.57340
O 74  35.97210 8.51620 23.43440
O 75  36.48800 5.79386 25.96376
O 76  35.41920 7.18093 21.26890
O 77  37.86160 6.48163 23.90370
O 78  40.09940 6.18422 22.69610
O 79  37.67600 8.31960 25.77063
O 80  40.25020 6.64847 25.27657
O 81  37.33850 5.55866 21.34390
O 82  39.82850 8.54339 23.42870
O 83  41.77470 9.04516 25.09674
O 84  41.65230 10.44900 22.75690
O 85  42.57550 8.19061 22.89380
O 86  44.41760 7.67915 24.68789
O 87  45.12310 8.10907 22.19260
O 88  44.40620 9.99361 23.58760
O 89  42.97580 5.65049 24.40959
O 90  42.74340 6.85260 26.58184
O 91  41.53080 4.02321 23.16600
O 92  44.03530 3.49654 23.51080
O 93  42.58280 3.47538 25.70911
O 94  45.12100 5.56735 25.90440
O 95  45.69020 7.54248 27.20310
O 96  47.14580 6.89559 25.08465
O 97  47.51466 5.54010 27.19188
O 98  45.87540 5.41859 23.27560
O 99  45.95480 2.98193 26.72909
O 100 46.55700 3.12043 24.22569
O 101 48.00410 3.27248 28.27745
O 102 46.01820 1.74886 29.00054
O 103 45.22790 0.94665 25.28065
O 104 47.79561 1.38765 25.75048
O 105 45.53690 4.24003 29.02512
O 106 43.17380 3.68308 28.25610
O 107 43.81710 3.42386 30.80070
O 108 43.50800 5.81477 29.71497
O 109 42.72500 5.97685 32.17991
O 110 44.88600 7.18776 31.44003
O 111 42.56680 8.14562 30.55968
O 112 40.35650 7.11634 29.84644
O 113 40.63100 9.75158 29.64488
O 114 39.81850 11.64750 31.19079
O 115 42.24120 11.66460 30.36030
O 116 40.81210 8.34293 27.14675
O 117 40.69220 5.69847 27.63080
O 118 42.49670 10.48360 27.04133
O 119 38.56050 6.96196 27.97176
O 120 40.06500 10.73130 25.95853
O 121 40.28740 13.30740 25.74675
O 122 38.98970 12.15070 24.02520
O 123 37.88290 12.44390 26.39304
O 124 42.26760 12.16750 24.63463
O 125 42.60800 14.57440 24.98896
O 126 43.70850 12.05970 22.43580
O 127 41.16060 12.89450 22.34170
O 128 44.54190 12.56680 26.27020
O 129 42.25220 13.38360 27.32821
O 130 41.48670 15.65090 27.09911
O 131 44.20750 14.99310 27.49801
O 133 42.39040 15.30190 29.49857
O 134 44.14620 11.57870 28.62294
O 135 44.67060 10.79140 30.99083
O 136 44.32310 13.33090 30.47608
O 137 45.04820 10.06050 26.73454
O 138 45.38950 9.24879 29.10942
O 139 46.77270 9.01071 31.14599
O 140 47.44680 9.37515 27.66045
O 141 47.03730 11.25810 30.06513
O 142 49.02703 9.69713 29.65055
O 143 48.78940 11.13590 31.96278
O 144 49.78238 12.08030 29.84186
O 145 51.77452 12.26870 28.32966
O 147 49.25845 13.11690 27.60203
O 148 49.76592 10.63840 27.59852
O 149 48.87407 14.91980 30.33424
O 150 51.42051 14.64120 29.60990
O 151 53.05054 12.98120 30.45919
O 152 50.14433 16.74640 28.96784
O 153 50.56602 16.37010 31.54281
O 154 51.61935 16.81830 33.79080
O 155 49.58404 18.27860 33.06475
O 156 52.02429 18.56260 31.94034
O 157 52.96657 15.04780 32.47250
O 158 48.04523 17.30520 30.28387
O 159 47.51469 16.00610 32.35865
O 160 48.21942 18.27700 27.97773
O 161 49.81853 19.17770 29.97801
O 162 46.19070 15.21980 30.36056
O 163 45.82570 13.62420 32.51804
O 164 44.04800 15.55890 32.03441
O 165 41.65500 16.23770 32.05972
O 166 42.61080 14.67340 34.01430
O 167 45.52640 16.12300 34.14270
O 168 45.59750 17.90410 32.15586
O 169 43.04690 17.25800 34.05970
O 170 43.35640 19.25630 32.61930
O 171 41.22260 18.95920 34.04000
O 172 45.13170 18.14350 35.84400
O 173 43.45340 20.09320 34.89380
O 174 44.14000 15.84750 36.48800
O 175 42.70990 13.85590 36.40270
O 176 46.67810 15.97700 36.29300
O 177 42.97460 15.06340 38.73290
O 178 41.46720 16.01800 37.04110
O 179 45.21540 17.91490 38.30370
O 180 46.44630 15.82160 38.74760
O 181 46.84760 18.02500 40.19380
O 182 43.19860 19.11890 37.34240
O 183 45.43420 20.28830 37.40120
O 184 44.32380 16.96860 40.50760
O 185 44.07940 15.48320 42.75100
O 186 44.91980 17.93560 42.97520
O 187 41.93510 16.61310 42.28370
O 188 40.19560 17.86370 41.03500
O 189 40.37140 18.09920 43.58510
O 190 42.31540 19.20540 41.95400
O 191 41.77360 14.21890 43.46600
O 192 42.51990 14.17330 41.03430
O 193 39.26980 15.50300 42.05930
O 194 40.54120 15.74050 39.71590
O 195 39.99550 17.72600 38.22070
O 196 38.11950 16.56690 40.12800
O 197 38.90780 15.35860 37.63340
O 198 40.95120 13.17040 39.08890
O 199 41.14970 11.47250 40.84510
O 200 38.85150 11.55190 39.09560
O 201 39.17900 13.24010 41.07210
O 202 43.64280 12.77640 39.04160
O 203 46.04720 12.27620 39.63200
O 204 45.68310 13.05860 37.21210
O 205 48.09026 14.10070 37.24530
O 206 46.93830 13.16400 34.90410
O 207 47.89429 11.55830 36.91440
O 208 48.94951 10.49890 39.09990
O 209 50.48616 10.97330 37.05100
O 210 48.77164 9.02952 36.95530
O 211 48.51918 9.97647 34.48040
O 212 46.37960 9.28514 35.66780
O 213 46.06490 8.36651 33.44600
O 214 44.04040 9.62789 34.43820
O 215 48.29479 7.44097 35.10960
O 216 45.92430 11.14720 33.72360
O 217 44.28440 12.81230 34.43630
O 218 41.55490 12.39330 34.61740
O 219 39.84070 14.11960 35.56580
O 220 39.46900 13.16820 33.22255
O 221 40.83190 13.99820 31.12964
O 222 38.35800 13.99750 30.94345
O 223 35.99240 14.13150 30.30519
O 224 37.36850 12.07180 29.40923
O 225 37.81500 14.33860 28.31507
O 226 35.62720 13.41380 27.21747
O 227 37.20910 14.77080 25.64733
O 228 39.24940 16.85390 27.48515
O 229 40.71060 18.62940 28.41997
O 230 40.93840 18.00570 25.98583
O 231 40.16220 16.41490 29.97017
O 232 39.95170 15.84780 25.01959
O 233 38.42360 18.50740 29.56254
O 234 39.78260 19.17880 31.65465
O 235 37.28530 19.93430 31.49289
O 236 39.10880 21.09440 29.99435
O 237 39.19930 21.27360 27.37378
O 238 37.57490 22.79250 28.69465
O 239 39.99750 23.32810 28.87103
O 240 42.20570 24.43074 29.55970
O 241 39.87830 25.58658 30.28446
O 242 42.26810 22.03330 28.20639
O 243 38.41400 24.81259 27.17521
O 244 41.02860 25.63624 27.75984
O 245 43.17260 24.60909 27.03420
O 246 40.20360 25.78513 25.14355
O 247 37.92900 24.80581 24.67317
O 248 40.37010 23.22120 25.00088
O 249 40.91100 24.63642 22.87170
O 250 37.83750 26.99202 26.06590
O 251 42.63250 24.27474 24.68389
O 252 43.85900 22.17710 26.05533
O 253 42.22810 20.09300 26.44858
O 254 44.00780 20.15240 28.17904
O 255 43.00910 17.93280 27.62119
O 256 45.59260 18.09860 28.45824
O 257 43.78400 18.28120 30.20840
O 258 46.79460 20.07790 27.33387
O 259 44.42210 22.98670 29.04197
O 260 44.77400 24.29345 31.10494
O 261 46.72210 22.61520 29.93737
O 262 42.58430 22.07040 30.80528
O 263 41.95090 23.72550 32.63275
O 264 41.23730 21.08760 32.81674
O 265 43.73900 21.95310 33.18927
O 266 45.72930 20.48550 33.78600
O 267 44.71790 22.32210 35.63030
O 268 42.27010 22.97320 35.39390
O 269 45.25370 20.25720 31.23795
O 270 47.63305 19.86960 32.18484
O 271 46.78970 22.31440 32.31323
O 272 48.28216 24.31763 31.02219
O 273 50.70233 23.83010 31.47880
O 274 49.48284 25.37020 33.00676
O 275 50.32948 25.99976 30.29209
O 276 52.10877 26.53898 31.97769
O 277 52.65035 26.18153 29.31089
O 278 51.50462 28.31840 30.19668
O 279 48.91062 28.27402 31.02805
O 280 47.31200 29.91581 31.92083
O 281 49.54318 29.46113 33.18883
O 282 49.71600 28.56660 28.50022
O 283 50.31835 30.46475 30.39240
O 284 47.38080 28.01739 33.43920
O 285 45.98990 26.31176 32.09886
O 286 46.03840 26.15112 34.73170
O 287 44.66600 28.11495 33.46760
O 288 42.38290 28.28635 34.62620
O 289 43.66380 30.35042 34.41910
O 290 43.71470 25.47140 33.09123
O 291 41.76280 25.66132 34.81170
O 292 41.22790 25.98653 32.38585
O 293 39.14950 27.41322 32.17764
O 294 38.80670 24.78159 32.53453
O 295 39.76760 23.25490 34.38600
O 296 38.13320 25.13020 35.09370
O 297 37.11320 23.12580 33.86530
O 298 37.77120 21.57980 35.82500
O 299 36.33120 20.49460 33.97590
O 300 35.20350 22.27510 35.65990
O 301 33.08049 23.58360 35.02370
O 302 34.25320 23.77900 37.52090
O 303 32.93137 21.54680 36.64540
O 304 34.12080 22.16220 32.92857
O 305 32.72411 20.49830 31.69027
O 306 34.79650 21.41070 30.57242
O 307 31.53474 22.93930 33.09173
O 308 33.42580 24.77458 32.50358
O 309 34.92950 19.42230 32.27653
O 310 36.96320 18.00240 33.33710
O 311 35.84480 16.10950 34.54060
O 312 36.37960 18.30840 35.78910
O 313 38.30700 16.43380 35.29830
O 314 38.93280 20.06330 33.91600
O 315 40.42210 21.20060 35.71460
O 316 39.01850 19.32830 36.54880
O 317 38.47050 19.90920 39.01850
O 318 40.92500 20.07930 38.38580
O 319 43.24820 20.28330 39.70570
O 320 42.85290 21.81930 37.60510
O 321 43.75230 24.24499 37.17690
O 322 45.65270 22.88630 38.22030
O 323 44.93200 25.30118 39.28410
O 324 46.29000 25.09859 36.96210
O 325 48.37178 26.40220 35.98550
O 326 47.83728 24.26911 34.67500
O 327 47.63241 25.46361 39.49770
O 328 48.44959 23.11520 40.03700
O 329 46.01220 26.30924 41.32130
O 330 49.18326 24.23053 37.71390
O 331 50.30016 24.92484 39.84240
O 332 51.28009 27.24312 40.01610
O 333 51.16176 25.75957 37.59260
O 334 52.84673 25.20300 39.31690
O 335 55.17115 25.28258 38.19110
O 336 55.08566 24.50947 40.57910
O 337 52.54343 26.20903 41.92370
O 338 54.33242 22.80390 38.81850
O 339 54.31115 20.25860 39.31230
O 340 54.52703 21.82630 41.32500
O 341 56.49645 21.39900 39.93640
O 342 58.05350 19.73520 40.80470
O 343 57.23050 21.58260 42.53380
O 344 55.71234 19.60180 41.97410
O 345 55.78221 18.20890 44.00330
O 346 55.90166 16.99320 41.57660
O 347 53.55585 17.90070 42.48350
O 348 55.62996 18.07640 39.43480
O 349 55.22247 19.17220 37.08140
O 350 57.08840 15.89280 39.25120
O 352 53.25130 18.04390 38.30460
O 353 54.68012 15.56190 39.72130
O 354 54.98819 14.08440 41.72320
O 355 52.94511 15.58730 41.60750
O 356 52.97091 13.44550 40.02180
O 357 52.14724 12.65730 42.24690
O 358 50.60132 14.14150 40.51610
O 359 54.97729 11.49850 39.95130
O 360 52.90637 11.24280 38.14310
O 361 50.78971 11.55540 40.33940
O 362 48.36376 11.97300 41.14630
O 363 49.28044 9.65015 41.62420
O 364 51.37559 8.35965 41.22630
O 365 50.49012 8.47551 43.63880
O 366 48.37801 10.95590 44.01540
O 367 47.80105 13.35290 44.19870
O 368 45.91710 10.74270 44.83180
O 369 48.76261 12.29790 46.22680
O 370 50.44157 12.58150 44.16910
O 371 47.00480 8.67733 43.58420
O 372 50.01473 9.89966 45.90000
O 373 46.06810 10.72340 42.35900
O 374 44.48100 8.66124 42.49930
O 375 43.41300 11.09520 42.63060
O 376 46.36500 13.56120 41.85320
O 377 48.03644 14.04930 39.98100
O 378 48.55028 14.84620 42.22040
O 379 46.70250 15.55400 43.94440
O 380 46.81690 14.70140 46.29420
O 381 49.16218 15.28610 45.17540
O 382 49.54265 15.56410 47.65480
O 383 49.12074 17.75380 46.00240
O 384 51.41112 16.38570 46.14890
O 385 52.59679 18.49470 45.72860
O 386 53.10359 16.28210 44.22460
O 387 54.11432 16.73640 46.69750
O 388 54.61255 14.20110 46.73240
O 389 53.63422 15.19140 48.81095
O 390 56.06332 15.81570 48.31771
O 391 56.39496 13.88090 49.89388
O 392 57.77320 16.02820 50.36584
O 393 55.30877 16.08370 50.90842
O 394 53.08984 17.13770 51.60722
O 395 54.44266 15.39250 53.22401
O 396 57.20120 18.32410 51.68362
O 397 58.66080 16.60610 52.83131
O 398 56.36657 20.75270 51.97483
O 399 55.16851 18.80280 53.33055
O 400 59.60460 17.76900 50.65681
O 401 54.63602 19.07240 50.76230
O 402 52.57455 19.68880 52.15714
O 403 52.04329 18.78090 49.73899
O 404 49.88492 17.66480 49.07975
O 405 50.77983 19.58470 47.60717
O 406 49.48238 20.13250 49.77565
O 407 53.43509 20.04840 47.43730
O 408 52.04487 21.66170 50.60007
O 409 52.43310 24.12120 50.87575
O 410 52.27772 22.95140 48.37424
O 411 51.19897 21.59400 53.04959
O 412 53.77609 22.05840 52.62820
O 413 50.08587 23.51920 49.84599
O 414 47.89648 22.28090 50.20731
O 415 48.64342 22.66200 47.78237
O 416 49.88199 24.87412 46.96600
O 417 49.56139 23.16220 45.18480
O 418 47.44520 24.46684 45.94950
O 419 47.00090 25.06733 43.42050
O 420 46.17020 26.69891 45.11610
O 421 46.20730 23.60070 41.63250
O 422 44.43710 25.09140 43.01220
O 423 48.65571 22.94800 42.77400
O 424 50.83042 21.83870 43.41580
O 425 47.29010 21.20910 41.43150
O 426 46.30280 22.07290 43.70450
O 427 50.81023 24.49276 43.21340
O 428 52.51736 23.33610 41.81290
O 429 53.24932 24.81096 43.95730
O 430 52.32949 25.46448 46.34910
O 431 53.83683 23.02250 46.14750
O 432 55.70567 23.32540 44.51010
O 433 57.00690 23.11770 46.63070
O 434 58.24760 23.42670 44.27730
O 435 53.58007 21.78010 43.72740
O 436 55.19277 20.97330 45.86620
O 437 56.09244 19.73320 48.04209
O 438 54.79804 21.96510 48.36027
O 440 54.20084 24.64781 48.13401
O 441 51.90295 25.75462 48.80127
O 442 53.83987 26.21631 50.28846
O 443 54.63676 24.50483 52.10982
O 444 56.04146 22.89800 53.59699
O 445 53.61533 23.78570 54.46732
O 446 55.81857 26.36184 53.93332
O 447 56.92440 24.82189 50.15279
O 448 59.37590 24.13910 50.30765
O 449 57.84670 22.99250 51.75441
O 450 58.51040 26.89236 49.61817
O 451 57.85720 22.49410 49.14715
O 452 56.55388 27.20051 51.39283
O 453 58.09800 26.83064 53.31232
O 454 56.63396 29.00397 53.35484
O 455 56.69060 30.00215 55.72914
O 456 54.43612 28.93197 55.43458
O 457 55.10659 28.70181 57.74490
O 458 56.66350 27.45372 56.05997
O 459 53.65301 30.97666 53.76280
O 460 54.51835 26.14599 56.18977
O 461 52.04342 30.55591 55.64193
O 462 51.72207 32.64760 54.24744
O 463 49.83555 32.20187 55.92768
O 464 50.90035 30.95880 58.35530
O 465 52.77639 29.40569 58.77870
O 466 51.88895 30.85428 60.81530
O 467 49.59934 28.72195 58.99560
O 468 49.14739 27.82855 61.37120
O 469 50.47347 29.63986 62.56170
O 470 52.95681 30.16081 63.24220
O 471 52.74932 28.43335 61.47260
O 472 54.43508 27.59728 59.83580
O 473 54.94212 29.83392 61.04010
O 474 55.26080 27.67214 62.31160
O 475 56.88680 25.99962 63.47950
O 476 57.42310 26.48050 61.03040
O 477 55.84769 30.25844 63.34210
O 478 57.55720 29.32954 61.20950
O 479 56.92320 31.67076 61.54930
O 480 59.35580 31.03744 60.29990
O 481 58.78150 28.85971 58.85080
O 483 60.13690 27.08031 57.65250
O 484 59.02190 25.32926 59.32100
O 485 60.76770 26.83428 60.27440
O 486 59.55950 25.19509 61.82360
O 487 61.23230 27.02714 62.88380
O 488 62.21700 25.08762 61.68560
O 489 64.23580 24.03730 62.77540
O 490 63.55250 23.27320 60.37490
O 491 62.03450 22.54080 62.47500
O 492 59.73650 21.12130 62.76110
O 493 61.58010 20.89140 64.68870
O 494 62.82270 24.11690 64.87370
O 495 63.59100 26.39256 64.24440
O 496 61.85220 22.57860 66.62150
O 497 62.77650 24.98191 67.27850
O 498 60.42890 24.69653 66.05920
O 499 65.49450 24.93807 64.94830
O 500 64.66800 23.26150 67.08860
O 501 65.34110 25.69019 67.38480
O 502 67.07540 22.41140 67.26230
O 503 65.27190 20.68140 67.43080
O 504 65.54980 21.72170 65.02820
O 505 64.57380 21.79880 69.66230
O 506 63.15040 19.91150 68.64570
O 507 65.62570 19.40970 69.67960
O 508 63.01760 20.76340 71.49382
O 509 62.03430 22.69700 69.89880
O 510 60.97650 22.07480 72.10484
O 511 59.36940 23.17370 70.39280
O 512 58.21660 20.78440 70.48330
O 513 57.35900 18.61830 69.39460
O 514 58.54760 18.66920 71.91148
O 515 60.69910 17.20560 71.50384
O 516 60.98520 19.52140 72.65827
O 517 59.18310 15.57160 70.14680
O 518 61.72400 15.26620 69.77170
O 519 62.96030 17.46700 69.39500
O 520 64.70460 15.64710 69.52980
O 521 66.36640 17.04490 70.78870
O 522 67.46700 15.11610 69.66590
O 523 68.77700 14.80280 71.89700
O 524 69.39680 16.93630 70.44720
O 525 67.54660 17.99640 68.70790
O 526 68.33760 20.16340 67.89710
O 527 68.03610 19.09110 70.99046
O 528 70.24680 18.56720 68.05930
O 529 70.64770 19.30480 70.44950
O 530 72.49818 20.24450 68.36790
O 531 74.01585 19.25220 66.77140
O 532 74.96769 20.86910 68.93680
O 533 74.32902 16.86050 66.05410
O 534 72.23041 18.27770 65.20390
O 535 74.50886 18.73080 64.17420
O 536 75.62999 20.83160 64.69860
O 537 73.07065 20.93460 63.94700
O 538 72.38100 18.69220 62.52320
O 539 74.76385 20.70990 62.16820
O 540 73.30600 21.15780 60.13330
O 541 75.89967 20.94410 59.70630
O 542 74.85481 23.08760 60.76250
O 543 74.10119 18.32740 60.60660
O 545 76.24888 18.50010 59.22040
O 546 75.43884 16.05790 60.42420
O 547 72.02300 16.70200 60.91160
O 548 71.58383 19.20770 60.09500
O 549 72.00652 20.24390 57.91660
O 550 70.69520 21.69750 59.75070
O 551 70.78330 21.19150 62.16880
O 552 70.51310 18.02860 57.40680
O 553 73.06704 22.75510 56.83770
O 554 73.74413 24.35999 58.72960
O 555 76.04856 24.44073 56.86050
O 556 76.15540 27.07473 57.78970
O 557 72.42096 16.39170 63.55490
O 558 75.61271 14.71830 58.30340
O 559 77.21714 14.12260 60.22570
O 560 74.76794 13.38940 60.45210
O 561 79.53258 15.21570 60.26720
O 562 79.13259 13.02590 58.80970
O 563 79.26203 13.02910 61.46630
O 564 80.64190 11.01740 62.20310
O 565 80.45580 13.08500 63.84700
O 566 78.59492 10.23330 61.14260
O 567 76.86449 9.35695 63.17540
O 568 77.03844 8.07009 65.49840
O 569 79.51481 7.71604 65.87440
O 570 78.43780 10.14440 65.98150
O 571 80.14080 10.11810 67.59090
O 572 79.87621 12.36050 66.31270
O 573 81.01630 10.40410 65.14240
O 574 83.07020 9.02145 64.73990
O 575 83.31660 10.62620 66.55670
O 576 83.27010 11.41930 63.89960
O 577 83.47570 9.90426 61.74460
O 578 83.27490 12.55180 61.47790
O 579 81.98360 14.75790 60.89180
O 580 84.03460 14.02230 59.38940
O 581 81.78130 13.01170 59.29660
O 582 80.65400 14.42110 57.29920
O 583 80.20190 16.99570 57.24880
O 584 81.80430 15.86790 55.40395
O 585 80.24200 14.76780 53.52813
O 586 79.02558 16.19290 55.33024
O 587 78.24388 18.42540 55.96280
O 588 78.38591 13.71020 55.11677
O 589 77.58123 16.30370 57.51280
O 590 76.87314 20.30500 54.83501
O 591 78.05511 20.30010 58.30770
O 592 75.64480 19.90450 57.28020
O 593 80.59220 19.35270 58.89700
O 594 81.64430 19.66520 61.23130
O 595 81.15440 17.27350 60.48100
O 596 82.85740 18.21080 62.90870
O 597 83.86460 18.21040 65.40380
O 598 82.55130 16.22150 64.74000
O 599 80.92000 14.65370 65.84240
O 600 83.67250 14.07410 65.68200
O 601 82.63070 15.50310 67.52420
O 602 80.46150 16.31240 68.44670
O 603 81.13930 13.76710 68.90570
O 604 81.78150 18.28850 67.13980
O 605 83.55140 20.29100 66.94000
O 606 84.46110 18.17650 67.92150
O 607 82.91470 22.27270 65.50560
O 608 80.81590 23.93470 65.08990
O 609 79.43952 26.07262 65.92010
O 610 81.87980 26.81908 65.83720
O 611 79.96934 28.58681 65.16710
O 612 81.49980 30.42088 64.16850
O 613 83.37430 30.02876 65.71650
O 614 84.02920 30.27784 63.19460
O 615 85.78750 28.85346 64.26690
O 616 86.13450 31.54164 64.08690
O 617 85.78270 33.09904 66.14520
O 618 86.90010 30.61691 66.42350
O 619 88.22070 32.69684 65.45180
O 620 87.70410 35.05900 66.66620
O 621 85.94080 36.85980 67.06100
O 622 88.31760 29.24346 64.91130
O 623 87.70270 28.27580 67.34720
O 624 89.48390 30.07644 66.86350
O 625 85.68610 27.22226 68.96510
O 626 83.37060 26.42162 67.89170
O 627 84.55840 26.99933 65.44900
O 628 89.92180 27.22606 65.51050
O 629 89.51780 27.68543 62.87720
O 630 88.38650 27.21235 60.36470
O 631 84.29100 31.68936 67.58650
O 632 84.86770 34.03600 68.59890
O 633 83.32780 35.95660 69.71590
O 634 83.67960 33.84330 71.07839
O 635 82.03850 32.25950 72.59380
O 636 82.82320 31.08201 74.62102
O 637 80.30640 32.35357 74.60028
O 638 82.29950 33.75470 75.29854
O 639 80.61350 34.77820 73.59015
O 640 81.35790 36.33030 71.50488
O 641 81.10010 34.65520 69.57270
O 642 78.67709 35.31270 68.74990
O 643 76.36966 36.18550 68.08660
O 644 76.62677 35.30810 70.54370
O 645 75.60233 36.30450 72.53292
O 646 74.36052 34.26610 71.41440
O 647 76.52210 33.65380 72.70760
O 648 75.37208 31.30743 72.91836
O 649 75.90814 32.54691 75.11751
O 650 72.99965 31.47000 73.92057
O 651 73.66890 29.45130 72.25189
O 652 73.26979 31.87754 71.41016
O 653 71.72583 33.94180 71.27868
O 654 71.47600 36.51860 71.97567
O 655 69.53480 35.27690 70.43230
O 656 69.95210 37.08560 74.02911
O 657 71.85759 38.75730 73.30220
O 658 74.53490 38.75350 73.05480
O 659 72.54764 27.32843 72.71431
O 660 73.99243 27.37340 70.59330
O 661 71.77988 28.61211 70.50280
O 662 70.67840 30.56215 68.95480
O 663 75.22473 33.96200 67.32970
O 664 84.55150 32.97039 74.65619
O 665 69.71480 17.97220 72.66894
O 666 67.73740 20.79560 65.51160
O 667 59.86410 27.59176 51.58504
O 668 60.48440 27.30188 54.20897
O 669 60.09330 25.31208 52.60515
O 670 62.39980 28.23318 52.97061
O 671 48.86817 20.93090 52.11920
