334
Lattice="23.5669 0.0 0.0 0.0 23.5669 0.0 0.0 0.0 23.5669"
Si 672  4.87828 2.31817 11.96020
Si 673  6.97959 0.29100 12.16940
Si 674  6.56817 3.79188 9.96722
Si 675  4.05996 3.73734 14.65620
Si 676  3.29819 -0.48930 11.48700
Si 677  1.49150 1.67947 10.69630
Si 678  2.68330 -1.74530 8.77043
Si 679  2.87372 -2.85450 13.44340
Si 680  3.68701 -4.97850 11.60400
Si 681  4.69646 -2.64060 15.74570
Si 682  0.86802 -3.01450 15.80660
Si 683  -1.52580 -1.69590 14.78520
Si 684  1.39015 -5.34650 17.72250
Si 685  0.94476 -0.42840 17.67970
Si 686  3.32889 -2.15700 18.18050
Si 687  2.77287 1.71854 16.68520
Si 688  -1.69370 0.37880 19.20460
Si 689  -0.78520 2.97696 20.14990
Si 690  -2.56480 0.87027 16.37680
Si 691  -3.11190 -2.36020 18.79270
Si 692  -0.87780 -3.97880 19.36110
Si 693  -5.91390 -2.65390 17.96980
Si 694  -4.42270 -3.72770 21.29390
Si 695  -4.10270 -0.92440 22.37240
Si 696  -6.86360 -4.83660 19.83810
Si 697  -3.09050 -6.09290 22.79720
Si 698  -5.12060 -8.06920 23.67810
Si 699  -1.57320 -6.89160 20.33670
Si 700  -3.76220 -4.52630 25.37600
Si 701  -6.38560 -6.01720 25.56570
Si 702  -1.81050 -4.87440 27.66129
Si 703  -0.76780 -7.51430 28.32017
Si 704  -1.62300 -3.29350 30.39645
Si 705  0.90911 -3.90510 26.21944
Si 706  1.79720 -1.12340 25.53949
Si 708  0.96315 -5.50470 23.61140
Si 709  3.59083 -4.06680 27.79748
Si 710  5.57873 -2.25550 28.67864
Si 711  3.88556 -6.51840 29.72221
Si 712  5.58423 -4.69600 25.40125
Si 713  3.87149 -6.25050 23.73900
Si 714  7.33858 -2.22630 24.42061
Si 715  7.06527 -7.58470 25.38598
Si 716  9.54916 -6.15080 24.95503
Si 717  6.91573 -8.99930 22.45290
Si 718  5.16444 -9.68990 27.04124
Si 719  3.02102 -8.74610 25.32310
Si 720  6.42373 -10.78150 29.50625
Si 721  6.17205 -11.92330 25.15582
Si 722  4.47985 -14.20453 25.23836
Si 723  9.03420 -12.67590 24.79104
Si 724  4.41410 -10.54870 22.91220
Si 725  1.55233 -11.16380 21.80800
Si 726  0.41450 -12.18030 24.40582
Si 727  1.44410 -13.68029 20.00910
Si 728  0.35420 -9.21180 19.58270
Si 729  2.92212 -7.68770 18.84380
Si 730  -1.87000 -9.62610 17.46890
Si 731  -3.77770 -8.86400 19.44290
Si 732  -1.62730 -12.24720 15.74050
Si 733  -1.07480 -6.70460 16.40790
Si 734  -3.83310 -5.82990 16.06160
Si 735  -0.84920 -7.31290 13.32720
Si 736  -3.69700 -7.98560 13.71800
Si 737  -0.99010 -5.44340 10.82900
Si 738  1.60727 -9.00530 12.34930
Si 739  1.13430 -9.15450 9.64402
Si 740  3.86733 -9.21730 14.38360
Si 741  1.17009 -12.15400 11.86770
Si 742  1.81409 -14.42474 10.20140
Si 743  1.11915 -12.90990 14.73600
Si 744  -1.97740 -12.11850 11.06800
Si 745  -1.10540 -14.55399 9.79252
Si 746  -1.77410 -9.84810 9.19526
Si 747  -3.52860 -12.83130 13.50180
Si 748  -6.27120 -13.69601 12.75320
Si 749  -2.20990 -15.71812 13.62690
Si 750  -3.44850 -17.29049 15.81610
Si 751  0.59540 -15.81464 14.67360
Si 752  -2.54250 -18.62291 12.43550
Si 753  -3.01990 -20.00901 15.08160
Si 754  -2.24910 -19.65233 9.53424
Si 755  0.52170 -19.30776 12.26280
Si 756  2.46513 -17.81737 13.61200
Si 757  0.74507 -18.34928 9.50653
Si 758  0.95895 -17.06021 7.02583
Si 759  2.75408 -20.45588 8.51845
Si 760  5.24673 -21.48035 7.29500
Si 761  1.74806 -22.94400 6.98867
Si 762  4.28807 -24.14240 6.85267
Si 763  -1.13990 -23.71120 6.55463
Si 764  -2.23590 -22.22262 4.27226
Si 765  -1.35550 -22.53761 9.61070
Si 766  -2.13290 -24.17830 12.17750
Si 767  -4.77010 -22.77922 12.84780
Si 768  -3.32250 -26.98880 11.44030
Si 769  -4.14600 -26.86240 14.30120
Si 770  -6.17170 -27.47480 10.66230
Si 771  -6.87920 -24.83360 11.52270
Si 772  -8.45290 -27.48900 8.54215
Si 773  -5.32840 -30.43610 11.18250
Si 774  -7.10610 -32.56590 11.98860
Si 775  -6.68440 -32.10800 9.14306
Si 776  -2.97570 -30.68440 9.14544
Si 777  -4.68310 -31.00150 6.89321
Si 778  -6.49470 -29.61600 4.87251
Si 779  -5.09920 -33.64330 5.32333
Si 780  -2.97480 -35.62590 4.71086
Si 781  -7.51370 -33.84640 3.39183
Si 782  -6.28090 -35.04130 7.96408
Si 783  -5.99750 -37.64036 9.74005
Si 784  -9.19830 -36.07940 7.19282
Si 785  -11.51750 -34.19760 7.03930
Si 786  -8.43490 -36.70790 4.34757
Si 787  -8.84560 -38.71062 8.80954
Si 788  -10.16980 -36.95060 10.90610
Si 789  -9.47520 -41.53922 7.55755
Si 790  -7.87000 -43.48065 6.63000
Si 791  -10.43550 -41.77756 10.25080
Si 792  -11.92540 -40.35466 6.26546
Si 793  -12.83090 -38.80664 3.93963
Si 794  -13.69217 -42.70536 6.03052
Si 795  -12.77270 -39.90245 9.10555
Si 796  -15.37893 -39.79544 8.17740
Si 797  -13.05440 -37.04620 10.28890
Si 798  -15.27788 -35.06990 9.79834
Si 799  -13.27970 -36.04430 13.28440
Si 800  -10.65000 -35.30230 13.38190
Si 801  -15.58478 -34.49920 12.92030
Si 802  -13.01170 -38.44450 14.91900
Si 803  -13.61819 -36.60260 17.24390
Si 804  -10.89900 -40.69158 15.13180
Si 805  -15.81584 -39.47988 13.94190
Si 806  -15.32151 -41.82879 12.13060
Si 807  -18.43445 -37.95408 13.31050
Si 808  -15.53590 -40.66869 16.79280
Si 809  -16.17998 -37.76099 17.77510
Si 810  -13.02760 -42.56496 16.27330
Si 811  -17.84289 -42.52587 18.32410
Si 812  -16.53712 -41.68711 20.72690
Si 813  -19.74825 -40.30467 17.88880
Si 814  -17.05898 -44.41988 16.13680
Si 815  -14.66915 -43.87504 14.43790
Si 816  -16.84188 -47.42250 15.17830
Si 817  -14.84549 -48.45070 17.19340
Si 818  -12.72380 -48.91000 15.24210
Si 819  -15.86462 -47.02890 19.53440
Si 820  -16.48986 -50.83250 16.51840
Si 821  -16.45996 -53.75570 15.77890
Si 822  -14.68286 -50.74420 14.09150
Si 823  -14.99230 -50.98350 11.06800
Si 824  -12.87700 -52.70640 15.88730
Si 825  -14.00861 -53.23330 18.40410
Si 826  -11.85040 -53.89120 13.46020
Si 827  -10.87260 -50.62170 16.50010
Si 828  -10.57590 -49.02400 18.95540
Si 829  -8.39290 -52.30360 15.44640
Si 830  -6.90210 -49.87510 14.95060
Si 831  -6.41180 -54.18760 16.57730
Si 832  -9.06720 -54.10550 13.08770
Si 833  -10.35990 -51.80300 12.00710
Si 834  -12.43490 -51.67490 9.72793
Si 835  -9.87340 -48.75180 12.08940
Si 836  -11.60500 -46.84520 13.65460
Si 837  -10.99900 -49.17960 9.22106
Si 838  -10.46250 -46.61610 8.13292
Si 839  -9.96370 -45.41029 5.47701
Si 840  -12.72300 -44.49253 8.25313
Si 841  -7.46630 -46.69410 9.23374
Si 842  -5.36940 -46.55620 6.93087
Si 843  -5.96800 -44.42806 10.93020
Si 844  -5.51610 -43.75806 8.08102
Si 845  -7.42260 -42.89385 13.29350
Si 846  -9.11520 -40.75736 12.71830
Si 847  -9.53370 -44.78600 14.09020
Si 848  -6.02440 -43.27750 16.13480
Si 849  -5.64180 -45.93435 15.80950
Si 850  -5.30580 -41.03484 18.16660
Si 851  -4.77190 -41.05024 20.88850
Si 852  -7.06870 -38.36016 18.60890
Si 853  -7.23330 -39.29330 21.29280
Si 854  -5.01970 -37.19880 16.72610
Si 855  -9.72590 -39.78046 17.59700
Si 856  -11.21020 -37.36717 18.44120
Si 857  -10.90840 -42.14602 19.20350
Si 858  -9.83020 -40.79143 21.45480
Si 859  -12.03080 -44.69608 18.17200
Si 860  -13.58933 -41.40964 20.49310
Si 861  -12.37690 -39.05943 21.84760
Si 862  -12.83850 -43.53676 22.58530
Si 863  -13.45110 -44.78516 25.09367
Si 864  -13.83757 -45.46283 20.65870
Si 865  -10.24900 -45.31696 22.09830
Si 866  -8.61220 -45.42996 19.70840
Si 867  -7.63620 -43.81098 21.71240
Si 868  -10.69860 -48.27060 23.07520
Si 869  -12.10360 -47.12340 25.16058
Si 870  -12.70190 -48.29640 20.74190
Si 871  -7.67940 -49.39560 23.17690
Si 872  -8.60530 -51.35610 25.03212
Si 873  -5.57380 -47.72030 24.85725
Si 874  -7.66010 -48.22060 20.14370
Si 875  -6.62460 -45.00314 25.30763
Si 876  -4.62130 -47.54160 27.72732
Si 877  -4.34240 -49.16190 30.12692
Si 878  -7.11000 -50.40220 29.43045
Si 879  -8.94530 -49.30470 27.40628
Si 880  -11.04020 -50.99280 28.47514
Si 881  -9.16670 -46.39024 26.20651
Si 882  -12.95890 -51.91260 30.59829
Si 883  -13.85992 -51.29540 27.21610
Si 884  -9.50740 -53.64010 29.13413
Si 885  -9.27840 -54.06770 32.18235
Si 886  -12.00160 -55.22100 28.01131
Si 887  -10.52930 -57.33380 27.51933
Si 888  -13.98453 -54.70410 29.80578
Si 889  -16.87935 -54.24970 29.93058
Si 890  -14.19995 -55.73270 32.82962
Si 891  -11.34010 -55.99240 33.11030
Si 892  -16.76322 -54.71950 34.21800
Si 893  -17.78674 -56.33000 32.14170
Si 894  -18.05795 -54.00600 36.94260
Si 895  -19.20717 -53.18280 32.68175
Si 896  -17.72414 -51.00760 33.37827
Si 897  -16.31361 -48.48430 33.57590
Si 898  -15.59636 -45.76267 32.12457
Si 899  -20.19149 -57.82230 31.93168
Si 900  -21.63468 -58.38140 29.51748
Si 901  -18.05636 -59.97560 32.61191
Si 902  -18.11122 -62.80855 32.84308
Si 903  -17.83721 -60.79725 29.66660
Si 904  -15.09957 -61.47887 29.54455
Si 905  -19.82188 -62.81964 30.01064
Si 906  -18.65418 -65.35134 28.44546
Si 907  -21.64281 -65.66360 28.39633
Si 908  -16.52298 -65.82366 30.57722
Si 909  -17.60408 -63.67878 26.05561
Si 910  -18.40505 -68.64830 27.63609
Si 911  -20.69574 -69.28817 25.93688
Si 912  -16.51407 -67.52941 25.53659
Si 913  -16.99078 -71.20230 26.50800
Si 914  -14.29059 -71.87380 26.58289
Si 915  -18.66502 -68.44626 23.65430
Si 916  -16.31341 -64.79856 23.85200
Si 917  -14.74546 -62.93683 25.50864
Si 918  -19.87861 -69.73150 21.27910
Si 919  -20.42611 -66.00621 23.92290
Si 920  -20.35376 -63.21619 23.06020
Si 921  -22.55562 -66.95954 25.97873
Si 922  -21.74109 -67.02758 21.29560
Si 923  -22.04207 -67.04381 18.39970
Si 924  -22.57793 -64.56671 17.20020
Si 925  -24.04610 -63.24230 19.49300
Si 926  -26.07360 -63.00928 21.24210
Si 928  -25.71540 -61.05201 18.04410
Si 929  -26.13570 -60.02260 20.74200
Si 930  -26.31090 -57.60000 22.06150
Si 931  -28.76780 -59.28570 21.93100
Si 932  -30.17790 -61.51019 23.75370
Si 933  -30.87000 -57.91860 19.91210
Si 934  -30.38250 -55.07420 19.30280
Si 935  -33.70520 -59.17000 20.30660
Si 936  -30.24660 -58.42170 16.83990
Si 937  -29.43120 -56.37590 14.65900
Si 938  -33.03930 -59.75260 16.09570
Si 939  -32.00520 -61.97691 14.32450
Si 940  -29.33600 -62.98808 14.57350
Si 941  -33.02600 -58.82320 23.36230
Si 942  -35.68530 -56.91150 19.30450
Si 943  -35.19980 -54.14630 20.27660
Si 944  -37.73348 -57.71980 21.43250
Si 945  -37.20846 -57.24160 16.66030
Si 946  -37.83159 -55.48960 14.15010
Si 947  -40.22228 -56.38330 17.52940
Si 948  -42.95891 -56.93270 17.28010
Si 949  -40.02817 -54.75540 19.84870
Si 950  -42.60033 -53.72390 21.01850
Si 951  -43.23320 -50.63680 20.79010
Si 952  -40.39292 -49.39850 21.27340
Si 953  -44.89588 -48.76290 22.68480
Si 954  -47.51160 -50.14610 22.30270
Si 955  -38.19586 -50.89790 20.08370
Si 956  -36.97800 -52.76820 22.29220
Si 957  -34.15280 -51.90640 23.10880
Si 958  -33.41190 -51.56840 20.40580
Si 959  -33.38850 -54.94430 23.58730
Si 960  -35.44790 -57.00100 23.45350
Si 961  -30.90720 -56.77460 23.88030
Si 962  -44.57617 -59.58440 17.37520
Si 963  -42.48580 -61.60092 16.34420
Si 964  -37.88035 -60.44150 21.76610
Si 965  -40.33944 -61.95410 20.77260
Si 966  -43.02166 -62.37834 20.71190
Si 967  -32.70120 -61.32772 25.25586
Si 968  -34.58060 -63.70611 24.20370
Si 969  -33.63140 -65.63364 26.20052
Si 970  -31.00700 -64.56207 26.66801
Si 971  -35.56700 -67.57941 27.62004
Si 972  -31.24940 -65.93114 24.16890
Si 973  -29.57710 -62.09883 28.04865
Si 974  -29.54060 -67.22539 27.77607
Si 975  -26.46970 -66.35586 28.13950
Si 976  -25.52730 -66.10785 25.34586
Si 977  -27.30490 -65.29922 30.79036
Si 978  -27.14900 -62.73632 32.63879
Si 979  -27.30460 -61.63652 29.87427
Si 980  -24.40580 -62.63777 28.94514
Si 981  -22.42923 -62.87227 26.83373
Si 982  -22.91790 -60.80028 31.03377
Si 983  -23.00990 -62.38568 23.90550
Si 984  -21.26638 -59.83140 26.85856
Si 985  -25.87690 -63.30691 24.06150
Si 986  -27.90980 -61.77743 25.42199
Si 987  -26.09930 -59.42530 25.33326
Si 988  -26.08540 -56.46820 24.70212
Si 989  -23.48740 -55.03250 25.48993
Si 990  -26.08200 -68.20705 23.73630
Si 991  -26.57670 -66.86309 21.26600
Si 992  -28.38340 -68.91428 21.78030
Si 993  -24.50720 -70.48480 25.42097
Si 994  -18.69577 -70.48690 18.42510
Si 995  -14.22842 -58.52260 29.16822
Si 996  -12.38410 -59.40650 26.67126
Si 997  -19.71311 -63.64379 35.00660
Si 998  -24.50850 -57.28750 29.63859
Si 999  -9.17540 -57.91240 34.54590
Si 1000 -15.74957 -51.48380 29.63010
Si 1001 -9.78810 -45.68914 16.84860
Si 1002 -8.12420 -47.24580 14.87220
Si 1003 -12.85300 -43.14007 11.09150
Si 1004 -13.90866 -45.94074 12.46640
Si 1005 -18.63439 -34.98510 12.81560
Si 1006 1.26464 -6.91180 7.09155
Si 1007 0.70240 -4.25520 8.73450
