12
Lattice="21.1357 0.0 0.0 0.0 21.1357 0.0 0.0 0.0 21.1357"
Si 688 1.654600000000002 11.385800000000003 2.4449000000000005
Si 900 3.7592999999999996 10.875599999999999 21.121300000000005
O 10 2.9540299999999995 11.1597 19.576700000000002
O 101 2.7826899999999988 10.2732 3.0151700000000012
O 188 0.09890000000000043 11.680500000000002 1.5238000000000014
O 198 2.3724099999999986 11.3262 0.9102000000000032
O 198 2.3724099999999986 11.3262 0.9102000000000032
O 384 4.541249999999998 12.2656 0.3027000000000015
O 462 0.8320000000000007 11.152000000000001 3.9022599999999983
O 473 5.114989999999999 10.197200000000002 20.3418
O 494 2.149149999999999 12.907800000000002 2.7626099999999987
O 591 3.6092699999999986 9.302509999999998 0.7511999999999972
