12
Lattice="21.1357 0.0 0.0 0.0 21.1357 0.0 0.0 0.0 21.1357"
Si 744 5.869260000000001 18.608000000000004 17.5811
Si 847 3.60389 18.7823 16.1276
O 2 6.54552 17.4343 18.5631
O 59 5.310369999999999 19.4531 18.874200000000002
O 67 4.5869 17.680099999999996 17.000299999999996
O 67 4.5869 17.680099999999996 17.000299999999996
O 143 2.7422199999999997 20.143900000000002 16.5968
O 274 3.1959300000000006 18.8917 14.5336
O 297 7.212139999999998 19.136700000000005 16.951
O 612 5.172060000000002 19.4491 15.865200000000002
O 612 5.172060000000002 19.4491 15.865200000000002
O 619 2.1679299999999984 17.958200000000005 16.5004
