6
Lattice="21.1357 0.0 0.0 0.0 21.1357 0.0 0.0 0.0 21.1357"
Si 761 14.807400000000001 12.812399999999997 2.195830000000001
O 20 15.0948 11.519999999999996 1.0617000000000019
O 113 16.3007 13.450600000000001 1.9594300000000011
O 313 14.2939 14.168300000000002 2.8984999999999985
O 328 13.439999999999998 13.037700000000001 1.1229000000000013
O 444 14.4788 11.7012 3.3539299999999983
