24
Lattice="21.1357 0.0 0.0 0.0 21.1357 0.0 0.0 0.0 21.1357"
Si 731 17.218900000000005 10.8098 6.061520000000002
Si 732 17.7446 10.828 3.43478
Si 865 13.295200000000001 7.627849999999999 8.22778
Si 1007 15.761600000000001 8.285530000000001 7.268729999999998
O 44 13.207799999999999 6.767479999999999 9.61514
O 106 17.6372 9.563670000000002 4.870660000000001
O 106 17.6372 9.563670000000002 4.870660000000001
O 111 14.160800000000002 8.90156 7.536380000000001
O 111 14.160800000000002 8.90156 7.536380000000001
O 194 19.3493 10.808799999999998 3.5911800000000014
O 210 16.869100000000003 12.362299999999998 6.719169999999998
O 218 15.1053 7.030160000000002 8.31374
O 218 15.1053 7.030160000000002 8.31374
O 301 17.658699999999996 12.108400000000003 2.1732900000000015
O 417 12.704499999999996 6.672799999999999 7.146750000000001
O 430 16.949799999999996 10.087699999999998 2.2821299999999987
O 514 18.343400000000003 10.5684 7.29767
O 526 16.0512 9.928809999999999 6.7196
O 526 16.0512 9.928809999999999 6.7196
O 547 17.0719 11.676299999999998 4.559660000000001
O 547 17.0719 11.676299999999998 4.559660000000001
O 592 17.301299999999998 7.97673 7.784309999999998
O 653 15.686 7.681550000000001 5.863599999999998
O 665 11.9527 8.662489999999998 8.545580000000001
