762
Lattice="21.1357 0.0 0.0 0.0 21.1357 0.0 0.0 0.0 21.1357"
Si 672 4.499020000000002 5.285330000000002 15.081400000000002
Si 673 2.5929399999999987 19.3598 5.76586
Si 674 20.4274 3.3933800000000005 3.6500200000000014
Si 679 9.389299999999999 8.524920000000002 5.73902
Si 680 0.37340000000000373 1.0439000000000007 10.817999999999998
Si 687 19.600899999999996 20.405299999999997 8.931249999999999
Si 689 14.3397 10.933599999999998 18.876999999999995
Si 691 4.644300000000001 8.802219999999998 5.904209999999999
Si 695 20.157600000000002 14.649100000000004 9.85688
Si 697 2.0854999999999997 15.995400000000004 8.807839999999999
Si 698 8.229109999999999 1.0756999999999977 9.99689
Si 700 17.4602 13.1451 17.461100000000002
Si 705 17.7958 15.7594 4.790130000000001
Si 707 11.792200000000001 17.0574 6.17182
Si 711 2.0542499999999997 19.864000000000004 10.635100000000001
Si 713 20.8277 17.447400000000002 0.9403999999999968
Si 715 12.508600000000001 12.409100000000002 6.855060000000002
Si 716 19.980000000000004 0.8344999999999985 4.219719999999999
Si 717 5.500700000000002 6.50826 19.564
Si 721 1.5707000000000022 5.59581 17.489400000000003
Si 724 9.69255 8.023490000000002 16.869299999999996
Si 725 9.554299999999998 18.204 6.900579999999998
Si 728 15.880000000000003 5.421990000000001 2.659489999999998
Si 734 6.570779999999999 15.184799999999996 8.55516
Si 737 1.8843999999999994 7.329229999999999 9.913879999999999
Si 739 11.732300000000002 19.973799999999997 19.5143
Si 740 5.386320000000001 7.67071 13.511699999999998
Si 745 4.59703 13.805599999999998 10.218
Si 747 7.970849999999999 12.541399999999996 3.9792500000000004
Si 749 15.983400000000003 3.373750000000001 10.095100000000002
Si 750 16.432900000000004 6.964459999999999 11.674900000000001
Si 751 13.2376 6.47841 19.8936
Si 753 15.028399999999998 18.3309 15.832499999999996
Si 754 7.70703 2.3469000000000015 5.199760000000001
Si 759 2.670180000000002 20.3583 20.042699999999996
Si 761 14.606499999999997 12.829300000000003 2.4114000000000004
Si 765 11.494799999999998 14.868299999999998 16.3382
Si 770 8.164850000000001 20.699799999999996 7.745899999999999
Si 772 10.9039 20.5246 14.396799999999999
Si 776 7.35839 19.025199999999998 1.254800000000003
Si 781 19.1768 13.475999999999999 14.493000000000002
Si 787 14.105699999999999 2.96753 1.4154000000000053
Si 790 2.8554199999999987 20.632800000000003 8.305399999999999
Si 796 15.8382 7.969719999999999 20.745199999999997
Si 797 15.523499999999999 7.095399999999998 15.946199999999997
Si 799 15.155999999999999 0.09700000000000131 16.5069
Si 800 14.515500000000003 18.2421 7.711120000000001
Si 801 7.886749999999999 20.6055 20.7491
Si 802 11.336799999999997 3.9236299999999993 12.090600000000002
Si 806 0.6368999999999971 0.6762999999999977 20.7275
Si 807 8.56785 10.738700000000001 2.2272299999999987
Si 809 6.650400000000001 18.0786 7.45448
Si 810 0.1950999999999965 14.706600000000002 15.2192
Si 812 1.4491000000000014 13.978200000000001 10.347099999999998
Si 814 11.004800000000003 13.180599999999998 4.807970000000001
Si 815 13.901499999999999 8.777999999999999 12.013400000000004
Si 817 15.832900000000002 0.7999999999999972 18.6708
Si 819 12.956899999999997 18.6785 14.177700000000002
Si 821 1.983740000000001 10.756900000000002 9.36083
Si 823 19.930999999999997 6.884059999999998 21.0064
Si 825 9.282229999999998 0.40109999999999957 18.3074
Si 827 18.1676 13.062100000000001 19.9932
Si 828 16.054699999999997 9.41628 14.396900000000002
Si 829 13.078400000000002 8.730229999999999 21.1186
Si 831 8.003410000000002 13.983599999999996 19.821399999999997
Si 837 19.4936 9.43532 17.488
Si 842 3.821290000000001 5.978659999999998 8.704720000000002
Si 846 6.4967299999999994 12.113599999999998 15.851199999999999
Si 853 19.003299999999996 3.911760000000001 11.365200000000002
Si 854 11.0077 1.6069999999999993 10.206800000000001
Si 856 17.251599999999996 0.4714999999999989 9.208269999999999
Si 859 13.877000000000002 17.7068 10.307400000000001
Si 861 7.713259999999998 16.3307 5.707599999999999
Si 864 2.933579999999999 8.20381 18.7549
Si 868 9.963650000000001 1.5814000000000021 4.04289
Si 869 7.512090000000001 13.5088 6.803609999999999
Si 873 14.9636 7.880490000000002 2.54289
Si 875 0.9949000000000012 16.1303 12.892299999999999
Si 876 7.244060000000001 1.099499999999999 16.712000000000003
Si 882 17.016400000000004 15.001199999999997 12.8677
Si 890 12.034399999999998 19.316699999999997 8.24392
Si 894 20.222899999999996 5.4757 7.051210000000001
Si 895 11.8189 20.0107 10.7895
Si 896 1.0797000000000025 8.658450000000002 16.4326
Si 898 11.438699999999997 14.851500000000001 8.48405
Si 899 11.070900000000002 13.781999999999996 13.430500000000002
Si 902 12.500900000000001 0.19500000000000028 17.1353
Si 909 12.503599999999999 7.655259999999998 15.4009
Si 910 19.571200000000005 16.045699999999997 16.4242
Si 919 0.5395000000000039 8.9222 19.572699999999998
Si 923 12.1496 13.811399999999999 2.103290000000001
Si 927 4.773949999999999 11.104799999999997 8.43815
Si 928 19.818399999999997 20.333 1.7494999999999976
Si 930 10.107199999999999 14.063499999999998 18.357299999999995
Si 931 8.98041 5.524639999999998 16.887500000000003
Si 933 16.602000000000004 17.316699999999997 11.6034
Si 936 6.0786799999999985 4.672640000000001 3.5443299999999986
Si 938 0.7989999999999995 18.665800000000004 19.419799999999995
Si 939 0.4265000000000043 7.91189 2.465209999999999
Si 940 20.1 10.418100000000003 15.127400000000002
Si 941 15.319499999999998 1.7642000000000024 20.8619
Si 942 20.7937 8.493079999999999 6.078579999999999
Si 944 5.42033 9.556469999999997 11.2436
Si 948 19.103700000000003 8.27919 13.1404
Si 953 5.803650000000001 2.1894799999999996 3.6083999999999996
Si 957 7.536629999999999 9.89619 15.618700000000004
Si 958 9.994999999999997 17.6473 9.74578
Si 962 11.823999999999998 5.993510000000001 17.1986
Si 965 10.7559 18.0923 12.8917
Si 968 6.9879 4.851279999999999 6.67304
Si 969 11.566699999999997 9.668019999999999 2.0351299999999988
Si 970 14.221699999999998 0.24200000000000443 14.2091
Si 971 15.034100000000002 3.94707 19.302099999999996
Si 972 20.462599999999995 18.373000000000005 14.784300000000002
Si 975 1.0688999999999993 2.0235400000000006 2.1357800000000005
Si 976 5.653829999999999 8.55912 8.869410000000002
Si 979 13.6098 2.4194899999999997 10.643700000000003
Si 980 14.192300000000003 13.994399999999999 5.847259999999999
Si 987 18.0094 1.644599999999997 1.2480000000000047
Si 990 0.05480000000000018 20.966099999999997 13.960499999999996
Si 991 18.5377 16.3876 1.584699999999998
Si 992 5.110379999999999 0.19960000000000377 5.3021899999999995
Si 994 20.6899 15.853499999999997 3.6963299999999997
Si 995 18.7128 2.8088599999999992 20.285200000000003
Si 997 10.2883 6.66394 3.215119999999999
Si 1003 18.878100000000003 2.8678099999999986 6.2208000000000006
Si 1005 13.023800000000001 15.861899999999999 12.5912
O 1 18.861000000000004 18.2299 14.394399999999997
O 6 4.4008 1.1448999999999998 3.977879999999999
O 6 4.4008 1.1448999999999998 3.977879999999999
O 7 8.3233 9.128349999999998 2.410029999999999
O 8 19.287599999999998 15.219000000000001 17.8151
O 11 16.691000000000003 4.82047 3.9662100000000002
O 12 2.359259999999999 3.0269900000000014 2.410989999999998
O 13 15.260800000000003 7.991039999999998 11.573099999999997
O 13 15.260800000000003 7.991039999999998 11.573099999999997
O 14 20.445300000000003 6.7362600000000015 6.0443999999999996
O 14 20.445300000000003 6.7362600000000015 6.0443999999999996
O 15 11.744799999999998 18.3089 19.721400000000003
O 16 12.488 5.914929999999998 0.046599999999997976
O 18 6.106850000000001 13.433 10.9097
O 19 11.475300000000004 15.0914 18.220600000000005
O 19 11.475300000000004 15.0914 18.220600000000005
O 20 15.297399999999996 11.624299999999998 1.2687999999999988
O 23 21.027699999999996 7.399529999999999 19.8243
O 23 21.027699999999996 7.399529999999999 19.8243
O 24 18.6207 14.746299999999998 1.8427000000000007
O 25 13.036200000000001 19.0169 11.056899999999999
O 25 13.036200000000001 19.0169 11.056899999999999
O 26 19.1935 11.7624 14.455799999999996
O 26 19.1935 11.7624 14.455799999999996
O 27 17.0514 20.8551 18.4882
O 28 16.317 4.5642700000000005 8.859740000000002
O 29 13.649799999999999 0.42660000000000053 15.783500000000004
O 29 13.649799999999999 0.42660000000000053 15.783500000000004
O 29 13.649799999999999 0.42660000000000053 15.783500000000004
O 32 0.3487000000000009 11.125 15.118700000000004
O 33 12.641599999999997 10.3031 12.789699999999996
O 34 10.6414 0.7986000000000004 8.726379999999999
O 35 2.4547500000000007 9.583269999999999 15.856899999999996
O 37 11.037500000000001 12.378999999999998 12.559899999999999
O 38 8.17418 7.27131 17.0066
O 38 8.17418 7.27131 17.0066
O 39 20.8042 9.29157 16.2222
O 39 20.8042 9.29157 16.2222
O 39 20.8042 9.29157 16.2222
O 40 11.500399999999999 5.9604 2.3137399999999992
O 41 0.5850999999999971 2.22532 0.535499999999999
O 41 0.5850999999999971 2.22532 0.535499999999999
O 42 14.1053 15.4512 13.744700000000002
O 47 15.267800000000001 16.8074 16.292699999999996
O 50 6.213070000000002 1.5533999999999963 5.08006
O 50 6.213070000000002 1.5533999999999963 5.08006
O 50 6.213070000000002 1.5533999999999963 5.08006
O 51 12.377499999999998 5.816559999999999 18.658699999999996
O 51 12.377499999999998 5.816559999999999 18.658699999999996
O 52 18.866799999999998 9.552680000000002 11.8677
O 54 15.780900000000003 10.381 18.770899999999997
O 55 17.302300000000002 12.127200000000002 20.953000000000003
O 57 6.87332 0.8066000000000031 10.928600000000003
O 58 12.1083 5.930419999999998 15.616300000000003
O 58 12.1083 5.930419999999998 15.616300000000003
O 60 8.256599999999999 14.816900000000004 6.095659999999999
O 60 8.256599999999999 14.816900000000004 6.095659999999999
O 62 20.9555 18.418 20.647400000000005
O 62 20.9555 18.418 20.647400000000005
O 63 10.0564 9.845599999999997 5.050239999999999
O 64 20.7003 16.0893 12.110300000000002
O 65 4.921109999999999 7.121510000000001 8.68682
O 65 4.921109999999999 7.121510000000001 8.68682
O 66 11.773400000000002 5.29205 11.401400000000002
O 69 3.6807000000000016 0.8243999999999971 8.69303
O 71 1.2481000000000009 8.16863 6.497260000000001
O 74 17.479 14.902299999999997 6.2193000000000005
O 75 16.6689 13.346000000000004 18.991500000000002
O 75 16.6689 13.346000000000004 18.991500000000002
O 76 19.9557 17.629000000000005 16.271900000000002
O 76 19.9557 17.629000000000005 16.271900000000002
O 78 9.33464 17.5131 13.5015
O 82 3.26858 0.05969999999999942 18.7265
O 84 19.148200000000003 4.360599999999998 3.51248
O 85 9.910159999999998 14.333100000000002 8.46273
O 87 5.081330000000001 0.25610000000000355 6.811979999999998
O 89 15.290300000000002 5.41742 10.942500000000003
O 90 0.5118000000000009 5.08492 18.557299999999998
O 91 20.285600000000002 16.5293 2.3238200000000013
O 91 20.285600000000002 16.5293 2.3238200000000013
O 91 20.285600000000002 16.5293 2.3238200000000013
O 92 0.2563999999999993 19.1657 17.9343
O 93 11.813499999999998 15.7121 7.137779999999999
O 93 11.813499999999998 15.7121 7.137779999999999
O 95 2.58371 18.832300000000004 19.464200000000005
O 95 2.58371 18.832300000000004 19.464200000000005
O 96 18.343599999999995 14.6907 20.194699999999997
O 97 16.5848 6.327739999999999 20.5175
O 99 12.052799999999998 20.5383 6.988379999999999
O 100 1.5311999999999983 14.922899999999998 11.662100000000002
O 100 1.5311999999999983 14.922899999999998 11.662100000000002
O 102 7.024039999999999 3.3886900000000004 4.103830000000002
O 102 7.024039999999999 3.3886900000000004 4.103830000000002
O 102 7.024039999999999 3.3886900000000004 4.103830000000002
O 104 0.5050999999999988 16.4989 4.839100000000002
O 105 6.181100000000001 8.359110000000001 10.485700000000001
O 105 6.181100000000001 8.359110000000001 10.485700000000001
O 108 15.162100000000002 17.922799999999995 11.243400000000001
O 108 15.162100000000002 17.922799999999995 11.243400000000001
O 110 20.473600000000005 9.75432 18.781599999999997
O 110 20.473600000000005 9.75432 18.781599999999997
O 113 15.888100000000001 13.9114 2.462530000000001
O 114 19.295699999999997 2.7362499999999983 0.8350999999999971
O 114 19.295699999999997 2.7362499999999983 0.8350999999999971
O 116 8.57271 13.067 18.4884
O 116 8.57271 13.067 18.4884
O 117 8.08275 16.542500000000004 4.13158
O 118 21.102199999999996 0.2972999999999999 12.315600000000003
O 118 21.102199999999996 0.2972999999999999 12.315600000000003
O 119 18.3682 2.7574700000000014 18.6811
O 121 7.16817 8.93506 8.23368
O 122 19.2018 6.14856 8.06007
O 123 14.549700000000001 9.23547 13.396100000000004
O 123 14.549700000000001 9.23547 13.396100000000004
O 124 19.603499999999997 5.31419 0.47400000000000375
O 125 6.790949999999999 12.800899999999999 19.8718
O 130 14.3078 0.9583999999999975 10.991900000000001
O 131 19.1648 14.183900000000001 8.445059999999998
O 132 10.6738 7.888780000000001 15.388300000000001
O 132 10.6738 7.888780000000001 15.388300000000001
O 133 2.525649999999999 10.932299999999998 10.995199999999997
O 136 10.9373 12.699100000000001 18.567499999999995
O 137 17.6899 2.537939999999999 2.7260799999999996
O 138 12.350700000000003 7.822420000000001 17.054299999999998
O 138 12.350700000000003 7.822420000000001 17.054299999999998
O 139 3.4626899999999985 7.579460000000001 6.306840000000001
O 140 2.4048100000000012 6.890720000000002 8.411569999999998
O 140 2.4048100000000012 6.890720000000002 8.411569999999998
O 142 18.869 0.8567000000000036 9.12585
O 142 18.869 0.8567000000000036 9.12585
O 144 19.4234 4.41686 6.1232299999999995
O 144 19.4234 4.41686 6.1232299999999995
O 145 20.037099999999995 9.38832 13.843600000000002
O 145 20.037099999999995 9.38832 13.843600000000002
O 147 20.904600000000002 10.192799999999998 5.905429999999999
O 148 15.861599999999996 8.04244 19.120999999999995
O 149 9.143639999999998 4.48235 18.1699
O 150 4.414729999999999 6.61891 12.462899999999998
O 151 6.554310000000001 2.512920000000001 16.0805
O 153 14.375999999999998 3.398720000000001 9.601790000000001
O 153 14.375999999999998 3.398720000000001 9.601790000000001
O 154 5.542950000000001 10.145200000000003 5.282309999999999
O 155 1.5264999999999986 19.9602 9.088360000000002
O 155 1.5264999999999986 19.9602 9.088360000000002
O 157 18.649 0.3422000000000054 1.9510000000000005
O 157 18.649 0.3422000000000054 1.9510000000000005
O 158 18.3461 13.199199999999998 15.924399999999999
O 158 18.3461 13.199199999999998 15.924399999999999
O 159 10.208300000000001 6.44426 17.2937
O 159 10.208300000000001 6.44426 17.2937
O 159 10.208300000000001 6.44426 17.2937
O 161 16.592600000000004 1.9630200000000002 9.70945
O 161 16.592600000000004 1.9630200000000002 9.70945
O 162 8.00049 1.1430000000000007 8.1676
O 162 8.00049 1.1430000000000007 8.1676
O 163 13.994799999999998 1.4967000000000041 0.5934000000000026
O 163 13.994799999999998 1.4967000000000041 0.5934000000000026
O 167 9.299329999999998 15.004100000000001 19.4418
O 167 9.299329999999998 15.004100000000001 19.4418
O 168 6.60538 6.500610000000002 6.6243300000000005
O 169 3.9980100000000007 20.005200000000002 21.082300000000004
O 171 20.8771 14.211799999999997 3.6602500000000013
O 172 1.920500000000004 0.4269000000000034 10.8566
O 172 1.920500000000004 0.4269000000000034 10.8566
O 173 14.147399999999998 7.65521 20.687200000000004
O 173 14.147399999999998 7.65521 20.687200000000004
O 173 14.147399999999998 7.65521 20.687200000000004
O 174 9.145989999999998 0.22910000000000252 0.4344999999999999
O 175 7.103560000000002 4.5635200000000005 8.40241
O 177 9.68817 5.043900000000001 15.452399999999997
O 178 7.93731 17.983599999999996 6.23057
O 178 7.93731 17.983599999999996 6.23057
O 178 7.93731 17.983599999999996 6.23057
O 179 5.436969999999999 6.685130000000001 14.8523
O 179 5.436969999999999 6.685130000000001 14.8523
O 182 10.2914 8.619489999999999 18.311499999999995
O 184 5.945430000000002 11.411200000000001 7.35699
O 185 15.2774 0.2372000000000014 20.173500000000004
O 185 15.2774 0.2372000000000014 20.173500000000004
O 186 2.808109999999999 14.719700000000003 9.64037
O 186 2.808109999999999 14.719700000000003 9.64037
O 186 2.808109999999999 14.719700000000003 9.64037
O 190 19.224400000000003 5.479900000000001 10.7227
O 191 12.430300000000003 9.863210000000002 3.6499999999999986
O 192 7.76352 20.447000000000003 2.1616399999999985
O 193 20.2158 3.6100199999999987 19.956199999999995
O 195 2.1420199999999987 8.596780000000003 20.185299999999998
O 195 2.1420199999999987 8.596780000000003 20.185299999999998
O 196 1.9504100000000015 0.227800000000002 7.10238
O 200 6.6206 6.482510000000001 12.854
O 201 12.236800000000002 16.6922 4.683309999999999
O 202 7.607970000000002 13.851599999999998 8.548180000000002
O 202 7.607970000000002 13.851599999999998 8.548180000000002
O 203 8.51699 5.191499999999998 6.074169999999999
O 204 10.1127 17.027900000000002 5.865459999999999
O 204 10.1127 17.027900000000002 5.865459999999999
O 205 10.655099999999997 17.3656 11.3945
O 205 10.655099999999997 17.3656 11.3945
O 206 9.799410000000002 5.250990000000002 3.7810799999999993
O 207 4.59319 5.227809999999998 19.0807
O 208 2.2997000000000014 17.0274 12.539299999999997
O 214 11.092199999999998 12.035699999999999 6.093429999999998
O 214 11.092199999999998 12.035699999999999 6.093429999999998
O 215 14.027699999999996 12.029200000000003 17.651399999999995
O 216 12.587800000000001 20.6094 9.19358
O 216 12.587800000000001 20.6094 9.19358
O 219 6.980800000000002 0.1722999999999999 15.258099999999999
O 221 5.587780000000002 5.850369999999998 21.0488
O 222 12.5974 19.914900000000003 17.957099999999997
O 222 12.5974 19.914900000000003 17.957099999999997
O 223 12.945099999999996 20.3497 13.8964
O 223 12.945099999999996 20.3497 13.8964
O 223 12.945099999999996 20.3497 13.8964
O 224 4.30264 7.71415 19.909999999999997
O 224 4.30264 7.71415 19.909999999999997
O 225 4.886289999999999 3.4491799999999984 3.2094999999999985
O 225 4.886289999999999 3.4491799999999984 3.2094999999999985
O 229 7.517310000000002 11.126100000000001 16.7541
O 229 7.517310000000002 11.126100000000001 16.7541
O 231 17.137100000000004 5.437370000000001 1.5481000000000051
O 232 7.72551 10.945799999999998 0.8832000000000022
O 234 8.99971 9.316859999999998 16.1295
O 234 8.99971 9.316859999999998 16.1295
O 235 5.46885 4.488419999999998 6.028950000000002
O 237 19.8545 8.603920000000002 7.430440000000001
O 238 14.130899999999997 12.412599999999998 6.572430000000001
O 238 14.130899999999997 12.412599999999998 6.572430000000001
O 239 21.031599999999997 0.3644999999999996 5.514859999999999
O 241 13.450400000000002 9.75592 18.2911
O 243 19.101299999999995 19.2618 0.7464999999999975
O 244 6.882760000000001 16.446399999999997 7.548200000000001
O 244 6.882760000000001 16.446399999999997 7.548200000000001
O 244 6.882760000000001 16.446399999999997 7.548200000000001
O 245 12.145400000000002 1.759299999999996 17.4949
O 246 11.910699999999999 15.400800000000004 2.4459100000000014
O 247 19.8559 16.370599999999996 9.95741
O 248 19.4349 16.8138 0.31220000000000425
O 248 19.4349 16.8138 0.31220000000000425
O 249 15.1571 3.1079100000000004 11.643900000000002
O 249 15.1571 3.1079100000000004 11.643900000000002
O 250 16.3577 5.910409999999999 12.9356
O 252 7.07968 19.4897 8.039929999999998
O 252 7.07968 19.4897 8.039929999999998
O 253 14.686 3.4136999999999986 20.885999999999996
O 253 14.686 3.4136999999999986 20.885999999999996
O 253 14.686 3.4136999999999986 20.885999999999996
O 254 11.560000000000002 12.873199999999997 3.3141999999999996
O 254 11.560000000000002 12.873199999999997 3.3141999999999996
O 256 1.6195000000000022 15.690799999999996 7.2490999999999985
O 257 2.802340000000001 4.3916 17.7524
O 258 13.250799999999998 18.3393 8.803269999999998
O 258 13.250799999999998 18.3393 8.803269999999998
O 258 13.250799999999998 18.3393 8.803269999999998
O 259 12.562799999999996 1.944749999999999 9.39666
O 259 12.562799999999996 1.944749999999999 9.39666
O 260 8.77326 12.4204 7.263069999999999
O 261 11.939999999999998 14.4895 10.1308
O 262 20.136899999999997 20.4429 7.471160000000001
O 264 9.284500000000001 3.01708 4.942969999999999
O 264 9.284500000000001 3.01708 4.942969999999999
O 266 8.590530000000001 18.263599999999997 10.3459
O 267 13.8493 10.1528 20.591
O 267 13.8493 10.1528 20.591
O 268 14.437600000000003 16.3868 9.24372
O 272 5.488630000000001 4.535910000000001 13.9694
O 277 7.721139999999998 20.812399999999997 6.134409999999999
O 278 3.3508700000000005 6.16658 15.980699999999999
O 280 16.3478 20.7797 10.3967
O 281 6.55527 1.3825999999999965 2.47842
O 282 17.421300000000002 2.9369699999999987 5.300699999999999
O 283 17.7239 3.98893 20.6744
O 284 20.665099999999995 13.581200000000003 13.715400000000002
O 284 20.665099999999995 13.581200000000003 13.715400000000002
O 286 18.066500000000005 17.479799999999997 2.7582999999999984
O 287 13.3031 17.705399999999997 6.47777
O 287 13.3031 17.705399999999997 6.47777
O 288 18.0706 16.3992 12.376199999999997
O 288 18.0706 16.3992 12.376199999999997
O 290 12.567099999999996 10.875 1.329899999999995
O 291 5.928080000000001 10.995400000000004 11.712800000000001
O 292 11.3155 20.967600000000004 15.993400000000001
O 292 11.3155 20.967600000000004 15.993400000000001
O 293 14.933399999999999 6.498249999999999 17.383200000000002
O 295 0.09220000000000539 6.68722 3.4390399999999985
O 299 15.8106 13.688900000000004 12.8292
O 300 19.111800000000002 10.752099999999999 16.516400000000004
O 300 19.111800000000002 10.752099999999999 16.516400000000004
O 302 3.118310000000001 17.2239 8.525739999999999
O 305 0.7653999999999996 10.2726 8.388019999999997
O 307 16.4268 15.965899999999998 3.731020000000001
O 308 17.529200000000003 9.90606 15.063900000000004
O 309 4.89479 9.201720000000002 7.470780000000001
O 309 4.89479 9.201720000000002 7.470780000000001
O 309 4.89479 9.201720000000002 7.470780000000001
O 311 20.53 3.8945299999999996 8.28181
O 312 18.985 6.150199999999998 19.6963
O 313 13.780099999999997 14.0094 3.2639700000000005
O 313 13.780099999999997 14.0094 3.2639700000000005
O 314 19.722099999999998 15.104500000000002 15.117400000000004
O 314 19.722099999999998 15.104500000000002 15.117400000000004
O 314 19.722099999999998 15.104500000000002 15.117400000000004
O 318 19.8288 8.65655 4.707180000000001
O 321 13.332700000000003 18.322699999999998 15.799199999999999
O 321 13.332700000000003 18.322699999999998 15.799199999999999
O 322 12.475999999999999 16.0798 16.131100000000004
O 323 18.491299999999995 0.21869999999999834 4.906189999999999
O 324 19.3414 15.978300000000004 4.531480000000002
O 324 19.3414 15.978300000000004 4.531480000000002
O 325 13.752200000000002 2.0562199999999997 2.847830000000002
O 326 1.0202000000000027 20.414 19.877899999999997
O 326 1.0202000000000027 20.414 19.877899999999997
O 326 1.0202000000000027 20.414 19.877899999999997
O 327 20.2934 19.648600000000002 13.432900000000004
O 327 20.2934 19.648600000000002 13.432900000000004
O 328 13.491900000000001 13.133699999999997 1.2073000000000036
O 328 13.491900000000001 13.133699999999997 1.2073000000000036
O 329 15.908999999999999 8.51804 16.681399999999996
O 331 12.960499999999996 16.477199999999996 11.139499999999998
O 331 12.960499999999996 16.477199999999996 11.139499999999998
O 332 18.624300000000005 14.4799 10.5825
O 333 2.3328300000000013 8.89798 9.74136
O 333 2.3328300000000013 8.89798 9.74136
O 335 6.911519999999999 5.747299999999999 4.363769999999999
O 336 1.0315999999999974 19.201 6.05247
O 337 1.9871599999999994 7.500489999999999 11.658900000000003
O 339 18.808099999999996 2.718350000000001 12.516599999999997
O 342 1.0748999999999995 17.056399999999996 9.605980000000002
O 343 9.4116 12.5139 4.85059
O 343 9.4116 12.5139 4.85059
O 344 11.716900000000003 0.45050000000000523 11.122299999999996
O 344 11.716900000000003 0.45050000000000523 11.122299999999996
O 345 15.0225 10.34 15.262999999999998
O 346 11.3677 2.411390000000001 3.6941500000000005
O 347 6.8284400000000005 13.648200000000003 3.4505100000000013
O 348 6.15099 9.02414 12.908900000000003
O 348 6.15099 9.02414 12.908900000000003
O 349 17.9426 3.080680000000001 7.6637699999999995
O 352 5.883700000000001 0.5593999999999966 17.413799999999995
O 357 1.4793999999999983 8.816209999999998 18.084000000000003
O 357 1.4793999999999983 8.816209999999998 18.084000000000003
O 357 1.4793999999999983 8.816209999999998 18.084000000000003
O 358 17.0242 16.236800000000002 0.906800000000004
O 359 17.211799999999997 3.9927300000000017 11.223700000000001
O 359 17.211799999999997 3.9927300000000017 11.223700000000001
O 360 0.1636000000000024 1.753699999999995 9.187449999999998
O 361 10.9298 19.069900000000004 9.632750000000001
O 361 10.9298 19.069900000000004 9.632750000000001
O 361 10.9298 19.069900000000004 9.632750000000001
O 364 11.2684 18.92 14.3737
O 364 11.2684 18.92 14.3737
O 364 11.2684 18.92 14.3737
O 365 16.391 0.37930000000000064 7.849429999999998
O 366 14.860300000000002 9.1116 3.5284000000000013
O 367 8.315530000000003 9.80576 13.999499999999998
O 368 14.518900000000002 14.730199999999996 7.268180000000001
O 369 10.150100000000002 1.5660000000000025 18.989999999999995
O 370 6.508949999999999 4.6482600000000005 2.0274900000000002
O 373 9.89742 14.348700000000001 16.8345
O 373 9.89742 14.348700000000001 16.8345
O 374 16.607100000000003 5.803740000000001 15.460300000000004
O 375 13.588000000000001 14.137700000000002 11.921399999999998
O 377 8.6079 0.10370000000000346 16.835
O 377 8.6079 0.10370000000000346 16.835
O 378 6.1200399999999995 16.1712 5.217590000000001
O 379 3.939119999999999 9.22758 18.0484
O 380 1.0515000000000043 16.5895 0.44530000000000314
O 381 7.393640000000001 3.1157000000000004 6.584859999999999
O 381 7.393640000000001 3.1157000000000004 6.584859999999999
O 385 5.3692199999999985 6.829689999999999 17.7254
O 386 12.618400000000001 13.465800000000002 13.960700000000003
O 387 0.7952000000000012 5.418749999999999 7.211490000000001
O 391 13.5777 8.56288 1.5660999999999987
O 391 13.5777 8.56288 1.5660999999999987
O 392 18.0053 9.35071 18.2314
O 393 14.5411 5.5442800000000005 19.6203
O 393 14.5411 5.5442800000000005 19.6203
O 395 20.3166 20.549599999999998 3.3504000000000005
O 395 20.3166 20.549599999999998 3.3504000000000005
O 396 4.704180000000001 5.723269999999999 3.3931499999999986
O 397 13.944299999999998 3.4608300000000014 18.2534
O 399 3.645489999999999 19.8534 9.64679
O 399 3.645489999999999 19.8534 9.64679
O 401 14.311599999999999 6.29364 2.517330000000001
O 401 14.311599999999999 6.29364 2.517330000000001
O 403 9.45025 19.749200000000002 7.375859999999999
O 403 9.45025 19.749200000000002 7.375859999999999
O 404 10.981200000000001 8.35283 2.8412299999999995
O 404 10.981200000000001 8.35283 2.8412299999999995
O 407 1.340599999999995 15.198499999999996 14.223700000000001
O 407 1.340599999999995 15.198499999999996 14.223700000000001
O 408 15.7346 18.594499999999996 8.747970000000002
O 409 17.9437 16.564 16.2427
O 410 18.788200000000003 7.457160000000002 14.540700000000001
O 411 0.6191999999999993 2.4824400000000004 11.442300000000003
O 412 8.29606 1.0416999999999987 4.307220000000001
O 412 8.29606 1.0416999999999987 4.307220000000001
O 413 10.7547 3.256920000000001 10.221699999999998
O 413 10.7547 3.256920000000001 10.221699999999998
O 414 2.773340000000001 6.710070000000002 18.1425
O 414 2.773340000000001 6.710070000000002 18.1425
O 415 8.101669999999999 20.939 19.2568
O 415 8.101669999999999 20.939 19.2568
O 416 1.8748000000000005 8.19464 1.736699999999999
O 418 8.16085 10.3278 6.2666
O 419 10.2898 7.408110000000001 4.765460000000001
O 419 10.2898 7.408110000000001 4.765460000000001
O 424 8.436059999999998 20.6297 9.653869999999998
O 424 8.436059999999998 20.6297 9.653869999999998
O 425 17.724199999999996 14.1436 4.075949999999999
O 427 14.456400000000002 0.42950000000000443 17.957
O 427 14.456400000000002 0.42950000000000443 17.957
O 427 14.456400000000002 0.42950000000000443 17.957
O 429 11.493299999999998 8.809820000000002 0.4959999999999951
O 429 11.493299999999998 8.809820000000002 0.4959999999999951
O 431 16.8855 11.720799999999997 16.848600000000005
O 433 1.617599999999996 0.022800000000003706 14.173900000000003
O 434 11.459600000000002 15.197499999999998 12.5073
O 434 11.459600000000002 15.197499999999998 12.5073
O 435 2.12237 0.6837000000000018 2.4349500000000006
O 436 16.357100000000003 1.7609999999999957 0.9398000000000053
O 436 16.357100000000003 1.7609999999999957 0.9398000000000053
O 438 15.621200000000002 20.8551 14.9951
O 438 15.621200000000002 20.8551 14.9951
O 439 6.84994 15.0032 19.092
O 440 12.502299999999998 17.433499999999995 13.262299999999996
O 440 12.502299999999998 17.433499999999995 13.262299999999996
O 440 12.502299999999998 17.433499999999995 13.262299999999996
O 441 15.843499999999999 2.2762400000000014 19.329700000000003
O 441 15.843499999999999 2.2762400000000014 19.329700000000003
O 441 15.843499999999999 2.2762400000000014 19.329700000000003
O 444 14.363199999999999 11.660600000000002 3.514780000000002
O 445 1.0681000000000012 8.86495 4.259709999999998
O 446 16.681399999999996 14.536999999999999 16.959699999999998
O 449 12.571199999999997 10.9082 7.534320000000001
O 451 16.7575 9.54938 0.028800000000003934
O 452 8.16854 17.7823 1.886499999999998
O 453 5.92792 18.8609 1.9957300000000018
O 454 20.920500000000004 9.431460000000001 2.479520000000001
O 455 6.43421 13.141599999999997 17.281
O 456 4.0307400000000015 8.508940000000003 14.120199999999997
O 458 19.895899999999997 1.891999999999996 7.100660000000001
O 459 2.2780699999999996 0.5844999999999985 21.003699999999995
O 459 2.2780699999999996 0.5844999999999985 21.003699999999995
O 460 15.127499999999998 4.01296 2.151980000000002
O 460 15.127499999999998 4.01296 2.151980000000002
O 464 8.514040000000001 19.0589 0.041200000000003456
O 464 8.514040000000001 19.0589 0.041200000000003456
O 465 4.744530000000001 12.532400000000003 9.216189999999997
O 465 4.744530000000001 12.532400000000003 9.216189999999997
O 466 15.436300000000003 17.136399999999995 6.8526099999999985
O 467 16.692700000000002 10.005099999999999 12.874000000000002
O 468 17.0128 18.566199999999995 12.6008
O 470 7.03218 0.7398999999999987 0.3305000000000007
O 474 20.966 21.1188 0.8350000000000009
O 474 20.966 21.1188 0.8350000000000009
O 475 3.694659999999999 20.406 5.13748
O 475 3.694659999999999 20.406 5.13748
O 477 16.250500000000002 7.80667 14.444900000000004
O 477 16.250500000000002 7.80667 14.444900000000004
O 479 16.906 6.778420000000001 10.194299999999998
O 480 11.265299999999996 4.506 13.6201
O 481 0.9487000000000023 17.0867 18.8296
O 482 3.204349999999998 10.924599999999998 8.301369999999999
O 482 3.204349999999998 10.924599999999998 8.301369999999999
O 484 14.3228 1.7971000000000004 13.921500000000002
O 487 9.23311 20.4698 14.577399999999997
O 488 20.0325 18.806799999999996 9.22767
O 491 4.176549999999999 4.463819999999998 9.1098
O 493 10.581200000000003 14.692900000000002 4.459160000000001
O 495 18.016400000000004 19.9893 8.911160000000002
O 495 18.016400000000004 19.9893 8.911160000000002
O 496 7.845549999999999 12.9621 15.250299999999996
O 498 3.931090000000001 9.137070000000001 11.482300000000002
O 499 12.578000000000003 13.587199999999996 5.593170000000001
O 499 12.578000000000003 13.587199999999996 5.593170000000001
O 499 12.578000000000003 13.587199999999996 5.593170000000001
O 500 21.113299999999995 1.7738000000000014 3.234390000000001
O 500 21.113299999999995 1.7738000000000014 3.234390000000001
O 500 21.113299999999995 1.7738000000000014 3.234390000000001
O 501 3.5238300000000002 3.91864 14.955399999999997
O 502 3.1298199999999987 6.142870000000002 10.2868
O 502 3.1298199999999987 6.142870000000002 10.2868
O 503 19.633899999999997 2.3977199999999996 4.711729999999999
O 503 19.633899999999997 2.3977199999999996 4.711729999999999
O 503 19.633899999999997 2.3977199999999996 4.711729999999999
O 504 9.566200000000002 1.2533999999999992 11.002099999999999
O 504 9.566200000000002 1.2533999999999992 11.002099999999999
O 507 0.2686999999999955 15.773899999999998 16.557299999999998
O 507 0.2686999999999955 15.773899999999998 16.557299999999998
O 508 10.305300000000003 20.2798 18.6492
O 508 10.305300000000003 20.2798 18.6492
O 509 20.1244 7.311160000000001 12.237499999999997
O 511 9.167729999999999 17.3707 8.27939
O 511 9.167729999999999 17.3707 8.27939
O 512 11.6111 4.22269 17.1376
O 513 10.7761 0.6944000000000017 13.460499999999996
O 515 0.9132000000000033 6.89367 16.6627
O 515 0.9132000000000033 6.89367 16.6627
O 516 7.16986 6.498629999999999 19.2812
O 518 0.7626999999999953 19.255899999999997 11.479399999999998
O 520 16.595399999999998 18.5901 15.323300000000003
O 525 6.412659999999999 8.85877 16.122699999999995
O 527 7.960509999999999 2.6671000000000014 9.850470000000001
O 528 15.089799999999997 19.5449 16.920100000000005
O 528 15.089799999999997 19.5449 16.920100000000005
O 529 3.3559300000000007 5.266490000000001 7.08859
O 532 18.759100000000004 12.780299999999997 18.4946
O 532 18.759100000000004 12.780299999999997 18.4946
O 533 12.280699999999996 8.049390000000002 19.637
O 533 12.280699999999996 8.049390000000002 19.637
O 534 20.756299999999996 7.3750399999999985 1.1426000000000016
O 534 20.756299999999996 7.3750399999999985 1.1426000000000016
O 535 1.4339000000000013 7.977519999999998 14.768
O 536 10.875500000000002 19.556600000000003 12.1862
O 536 10.875500000000002 19.556600000000003 12.1862
O 539 7.96987 8.105449999999998 5.15184
O 540 20.413600000000002 4.454989999999999 12.431899999999999
O 541 14.6162 19.732799999999997 6.9828800000000015
O 543 6.01172 14.222499999999997 7.065550000000002
O 543 6.01172 14.222499999999997 7.065550000000002
O 545 20.8925 13.678899999999999 10.937200000000004
O 545 20.8925 13.678899999999999 10.937200000000004
O 548 11.273899999999998 18.282200000000003 7.268329999999999
O 548 11.273899999999998 18.282200000000003 7.268329999999999
O 548 11.273899999999998 18.282200000000003 7.268329999999999
O 551 10.1842 10.528500000000001 2.08671
O 551 10.1842 10.528500000000001 2.08671
O 553 3.785429999999998 13.139699999999998 11.401600000000002
O 554 5.25338 18.098 8.589460000000003
O 557 14.361899999999999 15.5439 5.034099999999999
O 558 7.31024 15.711199999999998 9.93683
O 561 9.03303 6.891159999999999 2.1957999999999984
O 562 17.7596 7.562090000000001 12.537700000000001
O 562 17.7596 7.562090000000001 12.537700000000001
O 563 0.10179999999999723 9.682780000000001 20.9857
O 564 6.430779999999999 19.627899999999997 20.8662
O 564 6.430779999999999 19.627899999999997 20.8662
O 567 5.4020399999999995 18.201300000000003 6.301670000000001
O 568 6.552769999999999 10.8996 14.645800000000001
O 568 6.552769999999999 10.8996 14.645800000000001
O 570 8.19341 13.970399999999998 0.2558000000000007
O 573 3.3259000000000007 9.49491 5.265920000000001
O 574 21.1162 18.744500000000002 2.0196000000000005
O 574 21.1162 18.744500000000002 2.0196000000000005
O 575 19.332700000000003 2.9956700000000005 10.1292
O 577 8.167200000000001 2.0267799999999987 17.771500000000003
O 577 8.167200000000001 2.0267799999999987 17.771500000000003
O 578 19.5175 7.742730000000002 17.460899999999995
O 579 12.4591 13.614000000000004 16.5809
O 581 0.19769999999999754 19.652699999999996 15.3491
O 581 0.19769999999999754 19.652699999999996 15.3491
O 582 3.1708500000000015 17.8767 5.743030000000001
O 584 7.5981999999999985 10.999600000000001 3.5669600000000017
O 584 7.5981999999999985 10.999600000000001 3.5669600000000017
O 586 9.794519999999999 0.7899999999999991 2.5536400000000015
O 587 9.45432 7.9328199999999995 7.223680000000002
O 588 10.820799999999998 14.6644 14.826099999999997
O 588 10.820799999999998 14.6644 14.826099999999997
O 589 13.645600000000002 9.61722 10.680300000000003
O 590 16.232600000000005 4.618649999999999 18.473
O 593 3.1136599999999994 19.5482 11.935900000000004
O 594 16.6717 15.590499999999999 14.381700000000002
O 596 18.345399999999998 14.099000000000004 13.253700000000002
O 596 18.345399999999998 14.099000000000004 13.253700000000002
O 598 7.4658000000000015 5.0227 16.4788
O 602 0.4579999999999984 14.792000000000002 9.17485
O 602 0.4579999999999984 14.792000000000002 9.17485
O 602 0.4579999999999984 14.792000000000002 9.17485
O 603 15.983199999999997 7.942520000000002 1.277000000000001
O 603 15.983199999999997 7.942520000000002 1.277000000000001
O 604 12.785699999999999 3.8348900000000015 1.3858000000000033
O 605 5.1373 15.073099999999997 9.30519
O 605 5.1373 15.073099999999997 9.30519
O 606 0.38159999999999883 4.223469999999999 4.555329999999998
O 607 1.7926999999999964 20.013199999999998 3.951810000000002
O 608 15.588900000000002 13.683799999999998 5.021419999999999
O 610 9.97861 3.083289999999998 12.599199999999996
O 611 0.36660000000000537 6.7091899999999995 10.0319
O 613 1.299199999999999 4.749299999999998 15.998800000000003
O 614 11.298699999999997 20.159999999999997 0.11710000000000065
O 615 16.161 15.764200000000002 11.659800000000004
O 615 16.161 15.764200000000002 11.659800000000004
O 616 14.078400000000002 7.175470000000001 15.2181
O 616 14.078400000000002 7.175470000000001 15.2181
O 617 5.134740000000001 10.0232 9.613140000000001
O 617 5.134740000000001 10.0232 9.613140000000001
O 617 5.134740000000001 10.0232 9.613140000000001
O 620 16.138999999999996 7.004200000000001 3.485800000000001
O 620 16.138999999999996 7.004200000000001 3.485800000000001
O 621 20.388400000000004 1.0152999999999963 14.6708
O 623 5.08155 4.672629999999998 16.5931
O 625 7.051949999999998 12.444900000000004 5.518560000000001
O 625 7.051949999999998 12.444900000000004 5.518560000000001
O 627 12.213799999999999 13.396999999999998 8.08173
O 627 12.213799999999999 13.396999999999998 8.08173
O 628 20.771500000000003 1.1929999999999978 19.527900000000002
O 629 0.24139999999999873 17.295100000000005 14.084400000000002
O 629 0.24139999999999873 17.295100000000005 14.084400000000002
O 632 17.5146 17.397599999999997 5.12998
O 633 4.912839999999999 12.186599999999999 15.656800000000004
O 634 20.5961 20.8613 10.2288
O 634 20.5961 20.8613 10.2288
O 635 17.548000000000002 17.676500000000004 10.293
O 637 18.4531 7.64818 0.2954000000000008
O 639 6.180990000000001 20.3435 4.31981
O 640 9.38936 13.594499999999996 13.5807
O 641 10.609299999999998 0.5301000000000045 5.075109999999999
O 642 1.5073000000000008 12.468499999999999 9.622869999999999
O 642 1.5073000000000008 12.468499999999999 9.622869999999999
O 643 12.704 9.1964 14.923900000000003
O 645 19.592399999999998 12.735 20.9413
O 646 8.822659999999999 12.616500000000002 2.4395300000000013
O 646 8.822659999999999 12.616500000000002 2.4395300000000013
O 649 18.1963 1.2763999999999953 20.679900000000004
O 649 18.1963 1.2763999999999953 20.679900000000004
O 650 5.435829999999999 7.748889999999999 4.8458000000000006
O 651 0.1261999999999972 13.332 16.075900000000004
O 652 10.892200000000003 13.7806 1.0818000000000012
O 654 16.251400000000004 1.3440999999999974 16.973600000000005
O 654 16.251400000000004 1.3440999999999974 16.973600000000005
O 655 21.049800000000005 3.7633399999999995 2.19764
O 655 21.049800000000005 3.7633399999999995 2.19764
O 657 12.894199999999998 7.547979999999999 12.227800000000002
O 658 11.082499999999996 16.419200000000004 9.37049
O 658 11.082499999999996 16.419200000000004 9.37049
O 659 15.2607 20.4563 12.771799999999999
O 666 12.536999999999999 2.89245 11.807499999999997
O 666 12.536999999999999 2.89245 11.807499999999997
O 667 14.6948 12.1481 20.0278
O 668 14.7254 18.5837 14.112099999999998
O 668 14.7254 18.5837 14.112099999999998
O 669 3.3278700000000008 19.410200000000003 7.312139999999999
O 669 3.3278700000000008 19.410200000000003 7.312139999999999
O 670 1.5711000000000013 15.474600000000002 2.8759499999999996
O 671 12.213300000000004 0.4492000000000047 19.629000000000005
