12
Lattice="21.1357 0.0 0.0 0.0 21.1357 0.0 0.0 0.0 21.1357"
Si 688 1.685299999999998 11.4987 2.3368900000000004
Si 900 3.8010100000000016 10.983699999999999 21.0088
O 10 3.0300399999999996 11.224400000000003 19.563500000000005
O 101 2.85266 10.4494 2.9100900000000003
O 188 0.14350000000000307 11.677999999999997 1.513300000000001
O 198 2.32648 11.419699999999999 0.7706000000000017
O 198 2.32648 11.419699999999999 0.7706000000000017
O 384 4.58869 12.360199999999999 0.3404000000000025
O 462 0.6736999999999966 11.279800000000002 3.7798100000000012
O 473 5.15644 10.262700000000002 20.2718
O 494 2.2516700000000007 12.971499999999999 2.6416499999999985
O 591 3.7256800000000005 9.501719999999999 0.696399999999997
