6
Lattice="22.1136 0.0 0.0 0.0 22.1136 0.0 0.0 0.0 22.1136"
Si 827 19.1613 15.657999999999998 9.882259999999999
O 24 19.130399999999998 16.656300000000005 11.6003
O 55 17.958299999999998 14.8537 10.755199999999999
O 96 19.3066 17.2366 9.30933
O 532 18.793200000000002 15.1812 8.294619999999998
O 645 20.513 15.004300000000004 10.4866
