18
Lattice="22.1136 0.0 0.0 0.0 22.1136 0.0 0.0 0.0 22.1136"
Si 688 1.6384700000000016 13.016000000000002 12.572800000000004
Si 723 21.367899999999995 12.329600000000003 11.890400000000003
Si 872 4.180019999999999 12.187099999999997 14.241600000000002
O 101 2.6881099999999982 12.069500000000001 13.505799999999997
O 101 2.6881099999999982 12.069500000000001 13.505799999999997
O 154 5.428470000000001 11.589099999999998 15.667999999999996
O 188 0.3470999999999975 13.489099999999997 11.364999999999998
O 188 0.3470999999999975 13.489099999999997 11.364999999999998
O 194 20.2109 13.082200000000004 12.674600000000002
O 198 2.600480000000001 12.7242 11.212500000000002
O 340 4.754369999999998 10.982200000000002 13.3216
O 454 21.8783 10.800500000000003 12.081399999999999
O 462 0.3325000000000031 12.572599999999998 13.5896
O 462 0.3325000000000031 12.572599999999998 13.5896
O 494 2.0427500000000016 14.494299999999999 13.0292
O 524 3.323879999999999 13.0442 15.631000000000004
O 537 5.01887 13.4879 13.6065
O 563 20.697300000000002 12.142399999999999 10.357299999999999
