6
Lattice="22.1136 0.0 0.0 0.0 22.1136 0.0 0.0 0.0 22.1136"
Si 759 2.5461799999999997 0.7470999999999961 9.674389999999999
O 82 3.4267199999999995 1.0703999999999994 8.32142
O 95 2.226040000000001 21.2593 9.337509999999998
O 326 1.1052999999999997 1.5245399999999982 9.466269999999998
O 459 3.2034200000000013 1.7692699999999988 10.7574
O 510 2.1162899999999993 22.0213 11.73
