252
Lattice="22.1136 0.0 0.0 0.0 22.1136 0.0 0.0 0.0 22.1136"
Si 674 20.728799999999996 5.21658 14.396000000000004
Si 679 8.69183 10.613299999999999 16.878900000000005
Si 681 3.9557399999999987 4.7170200000000015 17.258600000000005
Si 693 0.36359999999999815 2.269590000000001 16.6675
Si 706 3.731960000000001 8.624120000000001 0.4748999999999981
Si 715 12.672500000000003 13.623099999999997 16.798400000000004
Si 731 17.498099999999997 11.228100000000001 17.4519
Si 749 16.047299999999996 4.776520000000001 20.124799999999997
Si 750 16.835200000000004 7.635120000000001 21.559299999999997
Si 766 20.780199999999997 0.26089999999999947 0.5859000000000023
Si 774 16.802700000000005 5.69031 16.9186
Si 781 20.1951 13.873300000000004 3.3861099999999986
Si 793 9.518449999999998 12.982699999999998 16.361899999999995
Si 794 3.34685 2.856210000000001 21.580500000000004
Si 814 11.049499999999998 14.6615 14.983900000000002
Si 832 1.6902800000000013 8.07658 17.4256
Si 835 1.7926099999999998 11.418200000000002 0.49669999999999703
Si 842 3.4550100000000015 7.296199999999999 18.910299999999996
Si 852 15.1726 15.120499999999996 2.8431099999999994
Si 856 17.931 2.1441300000000005 20.0806
Si 869 7.45129 14.9267 17.257300000000004
Si 894 19.395299999999995 5.610060000000001 17.666
Si 897 2.6030499999999996 14.432599999999997 1.070299999999996
Si 898 11.599999999999998 15.601099999999999 19.167400000000004
Si 907 0.39979999999999905 4.194189999999999 21.3379
Si 920 6.892810000000001 8.327180000000002 15.656299999999998
Si 926 0.0008999999999943498 14.897700000000004 1.4109999999999943
Si 940 21.056699999999996 11.436200000000003 4.08409
Si 944 3.997869999999999 10.9815 21.4597
Si 949 9.129189999999998 14.306799999999999 19.1921
Si 950 16.8725 7.14489 18.994900000000005
Si 955 3.0725499999999997 4.789729999999999 19.819300000000002
Si 956 3.037790000000001 5.4006599999999985 14.236
Si 960 20.9151 3.33765 19.104400000000002
Si 963 17.387800000000002 13.952200000000001 2.2838700000000003
Si 968 6.912569999999999 6.087540000000001 16.915200000000002
Si 976 5.31005 9.598299999999998 19.563800000000004
Si 989 18.546200000000002 9.496649999999999 19.2422
Si 990 22.0932 2.2670199999999987 1.6854499999999994
Si 996 11.718399999999999 17.541900000000002 14.256899999999998
Si 1003 18.8338 3.9149600000000007 15.647200000000002
Si 1007 15.665600000000001 9.34561 17.254099999999998
O 9 0.4660999999999973 3.610330000000001 0.7805999999999997
O 9 0.4660999999999973 3.610330000000001 0.7805999999999997
O 12 2.195710000000002 4.10718 13.629899999999996
O 13 15.760300000000004 8.81917 21.393599999999996
O 14 20.564600000000002 6.737199999999998 17.7394
O 26 19.7503 12.2865 3.3860300000000016
O 26 19.7503 12.2865 3.3860300000000016
O 28 16.147499999999997 5.441800000000001 18.441099999999995
O 28 16.147499999999997 5.441800000000001 18.441099999999995
O 28 16.147499999999997 5.441800000000001 18.441099999999995
O 30 7.033380000000001 8.349160000000001 14.003499999999999
O 32 21.567899999999998 13.075799999999997 4.120989999999999
O 32 21.567899999999998 13.075799999999997 4.120989999999999
O 35 0.5726999999999975 10.898300000000003 4.5311699999999995
O 39 20.358700000000002 11.046200000000002 5.468799999999998
O 42 14.3614 16.370300000000004 2.209150000000001
O 60 8.04269 16.2743 16.405199999999997
O 63 8.91778 11.6604 15.548300000000001
O 63 8.91778 11.6604 15.548300000000001
O 65 4.740639999999999 8.070530000000002 19.416500000000003
O 65 4.740639999999999 8.070530000000002 19.416500000000003
O 68 2.0663599999999995 4.139590000000002 20.991599999999995
O 68 2.0663599999999995 4.139590000000002 20.991599999999995
O 68 2.0663599999999995 4.139590000000002 20.991599999999995
O 71 0.1629999999999967 8.766679999999997 17.533599999999996
O 77 21.4017 13.504999999999999 0.8656999999999968
O 84 19.5087 6.0391200000000005 13.786199999999997
O 85 9.981489999999997 15.874500000000001 18.9785
O 85 9.981489999999997 15.874500000000001 18.9785
O 89 16.5613 6.3521 20.5095
O 89 16.5613 6.3521 20.5095
O 89 16.5613 6.3521 20.5095
O 93 12.166100000000004 17.057599999999997 18.470699999999997
O 100 1.2117999999999967 14.8231 0.012899999999994805
O 100 1.2117999999999967 14.8231 0.012899999999994805
O 105 4.7165099999999995 9.41021 21.4391
O 105 4.7165099999999995 9.41021 21.4391
O 105 4.7165099999999995 9.41021 21.4391
O 106 18.342000000000002 10.6384 16.208900000000003
O 111 14.086200000000002 9.595490000000002 17.6974
O 118 20.873 1.9518999999999984 0.580999999999996
O 118 20.873 1.9518999999999984 0.580999999999996
O 121 6.902750000000001 9.61318 19.798
O 122 18.1266 6.674289999999999 18.1202
O 122 18.1266 6.674289999999999 18.1202
O 122 18.1266 6.674289999999999 18.1202
O 129 1.2768000000000015 11.373099999999997 2.0503800000000005
O 133 2.454329999999999 12.898700000000002 0.45929999999999893
O 133 2.454329999999999 12.898700000000002 0.45929999999999893
O 135 0.27429999999999666 11.473200000000002 21.873
O 139 3.3206099999999985 7.49418 17.263
O 139 3.3206099999999985 7.49418 17.263
O 140 2.2054800000000014 8.43072 18.9631
O 140 2.2054800000000014 8.43072 18.9631
O 142 19.583100000000005 2.512080000000001 19.7779
O 142 19.583100000000005 2.512080000000001 19.7779
O 144 19.9877 5.042179999999998 16.088799999999996
O 144 19.9877 5.042179999999998 16.088799999999996
O 144 19.9877 5.042179999999998 16.088799999999996
O 145 21.125599999999995 10.300999999999998 2.9469700000000003
O 150 4.29683 8.935120000000001 2.067920000000001
O 153 14.3597 4.5032 20.212
O 158 19.536599999999996 14.511 4.77186
O 161 17.0042 3.4973899999999993 19.7448
O 161 17.0042 3.4973899999999993 19.7448
O 164 9.925450000000001 11.7664 17.528499999999998
O 164 9.925450000000001 11.7664 17.528499999999998
O 166 3.3631600000000006 3.460139999999999 1.0304999999999964
O 168 6.75582 7.72372 17.235199999999995
O 168 6.75582 7.72372 17.235199999999995
O 172 2.1408699999999996 1.8046499999999988 21.537499999999998
O 175 7.116209999999999 5.4440300000000015 18.433700000000005
O 176 14.998700000000003 15.322300000000002 4.395050000000001
O 187 2.0220200000000013 6.629290000000001 13.912099999999999
O 196 0.9637999999999991 0.9323999999999941 17.438800000000004
O 199 4.211549999999999 3.1155299999999997 17.2751
O 201 12.5855 17.5446 15.7666
O 202 7.658239999999999 15.154 19.068900000000003
O 202 7.658239999999999 15.154 19.068900000000003
O 203 8.51707 6.079170000000001 16.444300000000002
O 210 17.6493 12.839699999999997 17.327
O 214 11.153099999999998 13.277899999999999 16.074500000000004
O 214 11.153099999999998 13.277899999999999 16.074500000000004
O 214 11.153099999999998 13.277899999999999 16.074500000000004
O 218 15.797100000000004 7.817519999999998 18.012800000000002
O 218 15.797100000000004 7.817519999999998 18.012800000000002
O 220 17.530400000000004 13.243500000000001 0.7768000000000015
O 230 2.469480000000001 4.329069999999998 18.3772
O 230 2.469480000000001 4.329069999999998 18.3772
O 233 10.801800000000004 18.933899999999998 14.379999999999999
O 235 5.5115300000000005 5.10839 16.5254
O 235 5.5115300000000005 5.10839 16.5254
O 237 19.7968 9.100010000000001 18.2572
O 238 14.4008 13.577299999999997 17.072300000000002
O 239 21.540200000000002 1.7606000000000002 15.461400000000001
O 242 15.5136 4.965889999999998 16.1953
O 246 11.8586 16.632 12.892799999999998
O 249 16.208299999999998 4.4385200000000005 21.775499999999997
O 250 15.901100000000003 6.846969999999999 0.7175999999999974
O 254 11.258100000000002 14.310300000000002 13.406000000000002
O 255 8.31175 12.994299999999999 19.8986
O 260 8.89134 14.035299999999996 17.534300000000005
O 260 8.89134 14.035299999999996 17.534300000000005
O 260 8.89134 14.035299999999996 17.534300000000005
O 261 12.235000000000003 15.427699999999998 20.5697
O 273 1.49531 8.293499999999998 15.752300000000002
O 280 16.993 1.0893999999999977 20.978600000000004
O 282 17.8342 4.335550000000001 14.4665
O 284 21.216600000000003 15.192499999999999 2.82029
O 284 21.216600000000003 15.192499999999999 2.82029
O 291 4.96734 11.967299999999998 0.1062999999999974
O 299 16.804400000000005 15.632899999999996 2.327449999999999
O 299 16.804400000000005 15.632899999999996 2.327449999999999
O 304 0.5415999999999954 3.9161499999999982 16.629499999999997
O 309 4.986059999999998 9.96661 17.935800000000004
O 311 22.105 4.608909999999998 19.0956
O 323 18.7737 2.3294400000000017 16.003900000000005
O 327 21.4419 0.5694999999999979 2.167480000000001
O 327 21.4419 0.5694999999999979 2.167480000000001
O 333 2.416619999999998 11.269200000000001 20.766499999999997
O 333 2.416619999999998 11.269200000000001 20.766499999999997
O 335 6.5320399999999985 6.70701 15.2512
O 335 6.5320399999999985 6.70701 15.2512
O 337 2.2441899999999997 8.035430000000002 21.992
O 339 18.6073 2.810929999999999 21.664599999999997
O 343 9.33501 14.132099999999998 15.0853
O 343 9.33501 14.132099999999998 15.0853
O 349 18.013 4.626369999999998 16.950800000000005
O 349 18.013 4.626369999999998 16.950800000000005
O 349 18.013 4.626369999999998 16.950800000000005
O 354 19.687 9.510180000000002 20.5521
O 360 21.8216 2.784880000000001 20.522899999999996
O 360 21.8216 2.784880000000001 20.522899999999996
O 365 17.7634 1.2923999999999936 18.683399999999995
O 386 13.537400000000002 14.0744 3.161649999999998
O 387 1.1723 6.4971 17.562299999999997
O 389 13.002100000000002 18.606200000000005 13.575500000000002
O 396 4.489360000000001 6.279669999999999 14.3732
O 411 20.7156 4.298359999999999 21.5365
O 418 7.447680000000002 11.495499999999996 17.4472
O 423 3.7324699999999993 5.56934 12.148999999999997
O 428 19.898500000000002 21.1014 1.0993999999999957
O 433 1.54317 1.870560000000001 2.001459999999998
O 449 12.603799999999996 12.081799999999998 17.692799999999995
O 458 21.338799999999996 2.505770000000002 17.887199999999996
O 458 21.338799999999996 2.505770000000002 17.887199999999996
O 469 4.4223099999999995 7.198450000000001 0.2629999999999981
O 478 1.870000000000001 2.16892 15.419799999999999
O 479 17.6106 8.30471 19.9841
O 479 17.6106 8.30471 19.9841
O 479 17.6106 8.30471 19.9841
O 490 3.0629300000000015 5.04627 15.915600000000001
O 490 3.0629300000000015 5.04627 15.915600000000001
O 491 2.573509999999999 6.425460000000001 20.054400000000005
O 491 2.573509999999999 6.425460000000001 20.054400000000005
O 493 10.667800000000003 16.302700000000005 14.9312
O 493 10.667800000000003 16.302700000000005 14.9312
O 498 2.9829800000000013 10.302800000000001 0.5615999999999985
O 498 2.9829800000000013 10.302800000000001 0.5615999999999985
O 498 2.9829800000000013 10.302800000000001 0.5615999999999985
O 499 12.677299999999999 14.670599999999997 15.513700000000004
O 499 12.677299999999999 14.670599999999997 15.513700000000004
O 502 0.4543999999999997 5.910450000000001 21.320799999999995
O 503 20.104900000000004 3.57226 14.343599999999999
O 503 20.104900000000004 3.57226 14.343599999999999
O 505 15.711699999999997 13.7058 2.2043999999999997
O 505 15.711699999999997 13.7058 2.2043999999999997
O 514 18.542400000000004 11.156899999999997 18.9352
O 514 18.542400000000004 11.156899999999997 18.9352
O 518 0.10889999999999844 0.05129999999999768 21.9648
O 526 15.8415 11.229800000000001 17.0496
O 526 15.8415 11.229800000000001 17.0496
O 529 4.153559999999999 5.651140000000002 18.6523
O 529 4.153559999999999 5.651140000000002 18.6523
O 529 4.153559999999999 5.651140000000002 18.6523
O 530 10.616299999999999 13.882000000000001 19.6639
O 530 10.616299999999999 13.882000000000001 19.6639
O 539 7.8946000000000005 9.46642 15.957200000000004
O 539 7.8946000000000005 9.46642 15.957200000000004
O 543 5.973880000000001 15.525299999999998 17.503900000000005
O 545 21.3591 16.0919 0.5686999999999998
O 549 4.2111100000000015 3.7732300000000016 20.3978
O 549 4.2111100000000015 3.7732300000000016 20.3978
O 553 3.609259999999999 15.282900000000001 0.03249999999999886
O 556 4.48142 1.65841 21.887000000000004
O 562 17.995899999999995 7.947199999999999 0.5094999999999956
O 575 19.7563 4.55078 18.762599999999996
O 575 19.7563 4.55078 18.762599999999996
O 585 3.615459999999999 14.1951 2.349990000000002
O 587 9.13327 9.629290000000001 18.092699999999997
O 592 17.086900000000004 9.729609999999997 18.111700000000003
O 592 17.086900000000004 9.729609999999997 18.111700000000003
O 592 17.086900000000004 9.729609999999997 18.111700000000003
O 596 19.002 14.325100000000003 2.36092
O 596 19.002 14.325100000000003 2.36092
O 601 17.345199999999995 13.495300000000004 3.898250000000001
O 606 21.911000000000005 6.2301 14.897000000000002
O 617 4.797550000000001 11.174299999999999 19.9982
O 617 4.797550000000001 11.174299999999999 19.9982
O 621 21.4111 2.8937799999999996 3.0023000000000017
O 625 7.057770000000001 13.720699999999997 16.193
O 627 12.3 14.6037 18.000199999999996
O 627 12.3 14.6037 18.000199999999996
O 631 17.231399999999997 6.7875499999999995 15.8417
O 634 20.112600000000004 0.5021999999999949 21.184100000000004
O 648 1.4028999999999954 14.860699999999998 2.2340599999999995
O 648 1.4028999999999954 14.860699999999998 2.2340599999999995
O 650 5.319219999999998 8.89694 15.462300000000003
O 653 15.95 8.95955 15.7163
O 655 21.4522 4.8318200000000004 12.9192
