6
Lattice="22.1136 0.0 0.0 0.0 22.1136 0.0 0.0 0.0 22.1136"
Si 850 11.218 11.864 0.8008000000000024
O 31 10.284400000000002 12.301599999999997 21.672100000000004
O 33 12.810800000000004 11.779399999999999 1.625399999999999
O 37 11.417599999999997 13.475600000000004 1.389400000000002
O 217 10.086900000000004 11.379999999999999 1.9725199999999994
O 394 11.479800000000001 10.2501 0.1494999999999962
