6
Lattice="22.1136 0.0 0.0 0.0 22.1136 0.0 0.0 0.0 22.1136"
Si 992 6.108439999999998 0.6625000000000014 15.6465
O 6 4.59789 1.3590000000000018 14.955000000000002
O 50 6.716799999999999 1.9171200000000006 14.651
O 87 5.660790000000002 0.7942999999999998 17.165899999999997
O 277 7.768519999999999 22.093 16.1101
O 639 5.92379 21.350200000000005 14.947
