6
Lattice="22.1136 0.0 0.0 0.0 22.1136 0.0 0.0 0.0 22.1136"
Si 764 3.5684900000000006 0.459699999999998 11.755500000000001
O 169 4.702940000000002 21.7983 10.810800000000004
O 376 4.065100000000001 21.7338 13.293699999999998
O 435 2.8981600000000007 1.5960800000000006 12.991699999999998
O 459 3.39067 1.6050299999999993 10.611700000000003
O 510 2.3131899999999987 21.605999999999998 11.589000000000002
