30
Lattice="22.1136 0.0 0.0 0.0 22.1136 0.0 0.0 0.0 22.1136"
Si 698 9.22242 1.2276999999999987 19.961500000000004
Si 752 7.63889 0.09570000000000078 2.3588500000000003
Si 870 7.83841 21.154 21.6927
Si 901 7.878910000000001 2.6552499999999988 18.478399999999997
Si 965 9.61498 20.181100000000004 1.3390999999999948
O 34 10.7364 1.0046999999999997 19.307599999999997
O 43 9.285259999999997 3.621669999999998 18.276
O 57 6.768789999999999 0.42849999999999966 21.7347
O 78 8.817969999999999 19.2625 2.4541299999999993
O 83 7.024979999999999 20.871100000000002 3.13992
O 162 8.399159999999998 1.0860999999999947 18.316800000000004
O 162 8.399159999999998 1.0860999999999947 18.316800000000004
O 205 10.883 19.120499999999996 1.1559999999999988
O 251 6.311769999999999 2.443929999999998 18.916299999999996
O 265 8.42894 1.4254999999999995 1.407599999999995
O 266 9.11233 19.885 21.781700000000004
O 266 9.11233 19.885 21.781700000000004
O 271 6.113379999999999 0.7272999999999996 2.0382500000000014
O 330 6.725670000000001 20.060800000000004 21.317399999999996
O 381 7.59759 2.9064900000000016 16.799200000000003
O 424 8.643800000000002 21.9021 20.469600000000003
O 424 8.643800000000002 21.9021 20.469600000000003
O 487 8.57844 0.4656999999999982 3.6491000000000007
O 504 10.137400000000003 1.503589999999999 21.4496
O 527 8.31494 2.533190000000001 20.163
O 527 8.31494 2.533190000000001 20.163
O 536 10.5232 21.4712 1.7166800000000002
O 569 8.12725 21.1703 1.1850999999999985
O 569 8.12725 21.1703 1.1850999999999985
O 569 8.12725 21.1703 1.1850999999999985
