30
Lattice="22.1136 0.0 0.0 0.0 22.1136 0.0 0.0 0.0 22.1136"
Si 698 9.39065 1.1372 20.0065
Si 752 7.940429999999999 0.18669999999999476 2.281970000000001
Si 870 8.082350000000002 20.9712 21.670000000000005
Si 901 7.953240000000001 2.64677 18.459
Si 965 10.002300000000002 20.080900000000003 1.3005999999999958
O 34 10.873999999999999 1.1011999999999986 19.2555
O 43 9.384919999999997 3.5012000000000008 18.369699999999998
O 57 6.96021 0.15559999999999974 21.6953
O 78 9.23216 19.169900000000002 2.428460000000001
O 83 7.25977 20.869699999999998 3.2088399999999986
O 162 8.47748 1.048499999999997 18.501099999999997
O 162 8.47748 1.048499999999997 18.501099999999997
O 205 11.2649 19.095199999999995 0.985599999999998
O 251 6.4123100000000015 2.4649399999999986 18.8929
O 265 8.644670000000001 1.3952999999999989 1.255199999999995
O 266 9.382560000000002 19.732000000000003 21.846800000000005
O 266 9.382560000000002 19.732000000000003 21.846800000000005
O 271 6.363900000000001 0.7312999999999974 1.9675399999999996
O 330 6.982960000000002 19.9286 21.116199999999996
O 381 7.634969999999999 2.7797599999999996 16.735199999999995
O 424 8.985409999999998 21.7829 20.5543
O 424 8.985409999999998 21.7829 20.5543
O 487 8.792449999999999 0.5226999999999933 3.6614299999999993
O 504 10.4252 1.5487399999999987 21.509400000000003
O 527 8.342299999999998 2.455169999999999 20.298800000000004
O 527 8.342299999999998 2.455169999999999 20.298800000000004
O 536 10.760300000000004 21.4145 1.768699999999999
O 569 8.373839999999998 21.118799999999997 1.1938999999999993
O 569 8.373839999999998 21.118799999999997 1.1938999999999993
O 569 8.373839999999998 21.118799999999997 1.1938999999999993
