6
Lattice="22.1136 0.0 0.0 0.0 22.1136 0.0 0.0 0.0 22.1136"
Si 755 3.2017799999999994 18.194800000000004 13.631600000000002
O 56 2.2702300000000015 19.5742 13.349999999999998
O 156 4.1501899999999985 18.2614 12.310999999999996
O 566 3.6554499999999983 17.365399999999998 14.940900000000003
O 597 4.58079 19.305399999999995 14.404700000000002
O 670 2.0407399999999996 17.0633 13.229699999999998
