6
Lattice="22.1136 0.0 0.0 0.0 22.1136 0.0 0.0 0.0 22.1136"
Si 992 6.246590000000001 0.5590999999999937 15.621300000000002
O 6 4.6096499999999985 1.4084999999999965 14.994499999999999
O 50 6.786269999999998 1.8464600000000004 14.673999999999996
O 87 5.918980000000001 0.7327999999999975 17.1499
O 277 7.866579999999999 22.033400000000004 16.058899999999998
O 639 6.013200000000001 21.381599999999995 14.765199999999997
