6
Lattice="22.1136 0.0 0.0 0.0 22.1136 0.0 0.0 0.0 22.1136"
Si 887 17.0003 0.7588000000000008 12.401999999999997
O 4 15.382200000000001 1.3086999999999946 12.6084
O 36 17.235000000000003 1.4843100000000007 13.973499999999998
O 157 18.416 1.6135300000000008 11.7075
O 383 17.560099999999995 21.424399999999995 12.890899999999998
O 448 16.5861 0.24510000000000076 10.788700000000002
