6
Lattice="22.1136 0.0 0.0 0.0 22.1136 0.0 0.0 0.0 22.1136"
Si 755 3.09525 18.2918 13.674200000000003
O 56 2.1332699999999996 19.5932 13.370999999999999
O 156 4.138960000000001 18.2574 12.3916
O 566 3.38166 17.2859 15.015400000000003
O 597 4.289080000000002 19.2961 14.5838
O 670 1.9370399999999997 17.184100000000004 13.184299999999997
