162
Lattice="22.1136 0.0 0.0 0.0 22.1136 0.0 0.0 0.0 22.1136"
Si 679 8.932460000000003 10.637000000000004 16.815500000000004
Si 681 4.216999999999999 4.714510000000001 17.261799999999997
Si 706 3.8294299999999986 8.705580000000001 0.46229999999999905
Si 715 12.896000000000004 13.642599999999998 16.782299999999996
Si 781 20.308600000000002 13.8798 3.288170000000001
Si 783 5.971149999999998 7.326370000000001 13.7625
Si 793 9.72665 12.958900000000003 16.319999999999997
Si 794 3.6129299999999986 2.75591 21.4397
Si 814 11.220900000000004 14.513899999999996 14.890599999999996
Si 832 1.799859999999999 8.051919999999999 17.4686
Si 835 1.8336299999999994 11.5444 0.5050999999999988
Si 842 3.762360000000001 7.232960000000002 18.9076
Si 852 15.276700000000002 14.864 2.8375400000000006
Si 869 7.585440000000002 14.940099999999997 17.260899999999996
Si 897 2.6878899999999994 14.518199999999997 0.9480000000000004
Si 898 11.597600000000003 15.537899999999997 19.104699999999998
Si 920 7.00149 8.356170000000002 15.668600000000001
Si 926 0.001799999999995805 15.0245 1.2590999999999966
Si 936 5.784310000000001 5.103170000000002 14.867700000000003
Si 940 21.221099999999996 11.486300000000004 4.024329999999999
Si 944 4.083659999999998 11.053 21.4186
Si 949 9.29806 14.287400000000002 19.063599999999997
Si 955 3.1559099999999987 4.74352 19.7651
Si 963 17.448399999999996 13.840799999999998 2.19435
Si 968 7.13861 6.110330000000001 16.932199999999998
Si 976 5.456399999999999 9.71122 19.4759
Si 996 11.765400000000003 17.418399999999995 14.325
O 26 19.799700000000005 12.256400000000003 3.25798
O 26 19.799700000000005 12.256400000000003 3.25798
O 30 7.304210000000001 8.32865 13.890199999999997
O 30 7.304210000000001 8.32865 13.890199999999997
O 32 21.7118 13.142700000000001 3.93703
O 32 21.7118 13.142700000000001 3.93703
O 35 0.6869000000000014 11.033100000000001 4.522739999999999
O 39 20.4417 11.012600000000003 5.36534
O 42 14.4481 16.0624 2.1202700000000014
O 60 8.09302 16.275700000000004 16.4228
O 63 9.23806 11.650700000000004 15.488899999999997
O 63 9.23806 11.650700000000004 15.488899999999997
O 65 4.968530000000001 8.112010000000001 19.356399999999997
O 65 4.968530000000001 8.112010000000001 19.356399999999997
O 68 2.0823500000000017 4.035149999999998 20.8409
O 68 2.0823500000000017 4.035149999999998 20.8409
O 71 0.2161999999999935 8.754920000000002 17.5164
O 77 21.3781 13.563500000000001 0.7903999999999982
O 85 10.016099999999998 15.860800000000001 18.9993
O 85 10.016099999999998 15.860800000000001 18.9993
O 93 12.111999999999998 17.084499999999995 18.536199999999997
O 100 1.3706999999999994 14.8597 21.944999999999997
O 100 1.3706999999999994 14.8597 21.944999999999997
O 102 7.197150000000001 4.371190000000002 14.832200000000004
O 105 4.557199999999998 9.549429999999997 21.337800000000005
O 105 4.557199999999998 9.549429999999997 21.337800000000005
O 105 4.557199999999998 9.549429999999997 21.337800000000005
O 121 7.02131 9.695809999999998 19.7388
O 129 1.4607799999999997 11.586900000000004 2.1508199999999995
O 133 2.5841400000000014 12.974700000000002 0.3818999999999946
O 133 2.5841400000000014 12.974700000000002 0.3818999999999946
O 134 4.96114 8.31567 12.9331
O 135 0.38980000000000103 11.480700000000002 21.913100000000004
O 139 3.501999999999999 7.58032 17.2674
O 139 3.501999999999999 7.58032 17.2674
O 140 2.4179600000000008 8.414449999999999 18.9851
O 140 2.4179600000000008 8.414449999999999 18.9851
O 145 21.2653 10.2681 2.895500000000002
O 150 4.451039999999999 9.05978 1.9543999999999997
O 158 19.668399999999995 14.4374 4.721720000000001
O 164 10.196699999999996 11.7454 17.537700000000005
O 164 10.196699999999996 11.7454 17.537700000000005
O 166 3.5811600000000006 3.4234299999999998 0.8258999999999972
O 168 6.8927900000000015 7.686579999999999 17.2381
O 168 6.8927900000000015 7.686579999999999 17.2381
O 172 2.4184699999999992 1.6097800000000007 21.2758
O 175 7.33961 5.41788 18.4477
O 176 15.201399999999996 15.262199999999996 4.43235
O 199 4.508179999999999 3.1336699999999986 17.330299999999998
O 201 12.771199999999997 17.449500000000004 15.706099999999996
O 202 7.7496100000000006 15.002599999999997 18.956800000000005
O 202 7.7496100000000006 15.002599999999997 18.956800000000005
O 203 8.72729 5.867349999999998 16.499399999999998
O 214 11.294100000000004 13.349 16.176
O 214 11.294100000000004 13.349 16.176
O 214 11.294100000000004 13.349 16.176
O 220 17.688400000000005 12.9331 0.7768000000000015
O 225 4.9833099999999995 3.834240000000001 14.160799999999998
O 230 2.56776 4.4024 18.251700000000003
O 230 2.56776 4.4024 18.251700000000003
O 233 10.8032 18.6718 14.345099999999999
O 235 5.726330000000001 5.112870000000001 16.551999999999996
O 235 5.726330000000001 5.112870000000001 16.551999999999996
O 235 5.726330000000001 5.112870000000001 16.551999999999996
O 238 14.658400000000004 13.590700000000002 17.0007
O 246 11.994899999999998 16.5048 12.9083
O 254 11.447300000000002 14.1112 13.283100000000001
O 255 8.70713 12.926800000000004 19.888499999999997
O 260 9.066320000000001 13.997000000000003 17.440500000000004
O 260 9.066320000000001 13.997000000000003 17.440500000000004
O 260 9.066320000000001 13.997000000000003 17.440500000000004
O 261 12.3458 15.417800000000003 20.504
O 273 1.7291500000000006 8.28258 15.769099999999998
O 284 21.283800000000003 15.229900000000004 2.679500000000001
O 284 21.283800000000003 15.229900000000004 2.679500000000001
O 291 5.13203 12.016700000000004 0.13170000000000215
O 299 16.842900000000004 15.471099999999996 2.212679999999999
O 299 16.842900000000004 15.471099999999996 2.212679999999999
O 309 4.994119999999999 10.071099999999998 17.831
O 333 2.655529999999999 11.374500000000001 20.5782
O 333 2.655529999999999 11.374500000000001 20.5782
O 335 6.63475 6.719529999999999 15.217600000000001
O 335 6.63475 6.719529999999999 15.217600000000001
O 335 6.63475 6.719529999999999 15.217600000000001
O 335 6.63475 6.719529999999999 15.217600000000001
O 337 2.391120000000001 8.09092 22.0134
O 343 9.48234 14.083400000000001 14.942899999999998
O 343 9.48234 14.083400000000001 14.942899999999998
O 370 6.45082 6.19398 12.6279
O 386 13.732600000000001 13.967200000000002 3.3029800000000016
O 387 1.2824000000000026 6.440369999999998 17.534300000000005
O 389 13.229200000000002 18.400700000000004 13.4524
O 396 4.7362 6.2286 14.221300000000003
O 396 4.7362 6.2286 14.221300000000003
O 418 7.591339999999999 11.533599999999996 17.399999999999995
O 449 12.8447 12.154100000000003 17.606399999999997
O 469 4.640799999999999 7.24352 0.23509999999999565
O 490 3.3307800000000007 5.0171600000000005 15.891899999999996
O 491 2.7352300000000014 6.3916900000000005 20.091600000000003
O 491 2.7352300000000014 6.3916900000000005 20.091600000000003
O 493 10.9374 16.083699999999997 15.0545
O 493 10.9374 16.083699999999997 15.0545
O 498 3.0249799999999993 10.454600000000003 0.5803000000000011
O 498 3.0249799999999993 10.454600000000003 0.5803000000000011
O 498 3.0249799999999993 10.454600000000003 0.5803000000000011
O 499 12.869800000000001 14.470099999999999 15.302899999999998
O 499 12.869800000000001 14.470099999999999 15.302899999999998
O 505 15.7625 13.478799999999996 2.1183300000000003
O 505 15.7625 13.478799999999996 2.1183300000000003
O 529 4.337540000000001 5.676819999999999 18.594799999999996
O 529 4.337540000000001 5.676819999999999 18.594799999999996
O 529 4.337540000000001 5.676819999999999 18.594799999999996
O 530 10.907900000000001 13.9406 19.421899999999997
O 530 10.907900000000001 13.9406 19.421899999999997
O 539 8.03267 9.537099999999999 15.918200000000002
O 539 8.03267 9.537099999999999 15.918200000000002
O 543 5.978210000000001 15.566800000000004 17.5716
O 545 21.523500000000002 16.197999999999997 0.2983999999999938
O 549 4.30123 3.8063000000000002 20.359200000000005
O 549 4.30123 3.8063000000000002 20.359200000000005
O 553 3.8527500000000003 15.4374 0.002400000000001512
O 556 4.757069999999999 1.5651499999999992 21.7719
O 585 3.6930300000000003 14.314899999999998 2.28097
O 587 9.229130000000001 9.5761 18.1095
O 596 19.0082 14.3567 2.30377
O 596 19.0082 14.3567 2.30377
O 601 17.4327 13.577699999999997 3.8398700000000012
O 617 4.955000000000002 11.285500000000003 19.8972
O 617 4.955000000000002 11.285500000000003 19.8972
O 625 7.1332699999999996 13.716399999999997 16.2978
O 627 12.602700000000002 14.774599999999996 17.925299999999996
O 627 12.602700000000002 14.774599999999996 17.925299999999996
O 648 1.4108000000000018 14.855 2.0639399999999988
O 648 1.4108000000000018 14.855 2.0639399999999988
O 650 5.44041 8.9134 15.438500000000001
