6
Lattice="22.1136 0.0 0.0 0.0 22.1136 0.0 0.0 0.0 22.1136"
Si 809 6.751950000000001 19.195600000000002 18.023299999999995
O 178 8.097060000000003 18.880399999999998 16.7938
O 244 7.093440000000001 17.7323 18.552399999999995
O 252 7.282720000000001 20.7193 18.3019
O 554 5.480219999999999 19.252600000000005 19.1947
O 567 5.505040000000001 19.410500000000003 16.9993
