18
Lattice="22.1136 0.0 0.0 0.0 22.1136 0.0 0.0 0.0 22.1136"
Si 702 12.559699999999996 3.7293699999999994 14.3704
Si 811 13.4211 6.83765 13.928900000000002
Si 974 12.351699999999997 6.470389999999998 11.593900000000001
O 16 12.635000000000002 7.27101 10.274800000000003
O 40 11.922999999999998 7.0959900000000005 13.092699999999997
O 40 11.922999999999998 7.0959900000000005 13.092699999999997
O 73 13.067600000000002 3.7698399999999985 15.883599999999998
O 269 13.035999999999998 7.963350000000002 15.014700000000001
O 325 13.720299999999998 3.0195599999999985 13.340700000000002
O 341 13.090300000000003 5.24203 14.078999999999997
O 341 13.090300000000003 5.24203 14.078999999999997
O 346 11.128400000000003 3.9882899999999992 13.5701
O 401 13.939699999999998 6.958269999999999 12.345400000000001
O 401 13.939699999999998 6.958269999999999 12.345400000000001
O 560 10.650099999999998 6.053639999999998 11.363000000000003
O 576 15.0414 6.7594899999999996 14.343300000000003
O 604 12.847600000000003 4.895030000000002 11.430299999999999
O 641 11.787000000000003 2.19782 14.707899999999999
