6
Lattice="22.1136 0.0 0.0 0.0 22.1136 0.0 0.0 0.0 22.1136"
Si 825 9.3523 1.3887 7.281279999999999
O 369 10.305200000000003 2.614840000000001 8.04488
O 377 9.71426 0.5372999999999948 6.010830000000002
O 415 8.348679999999998 0.7571999999999974 8.414469999999998
O 508 10.6208 0.2863999999999933 8.306050000000003
O 577 8.12282 2.147220000000001 6.442420000000002
