96
Lattice="22.1136 0.0 0.0 0.0 22.1136 0.0 0.0 0.0 22.1136"
Si 686 12.803799999999999 18.894700000000004 4.807959999999998
Si 703 7.431259999999998 14.098000000000003 7.73348
Si 710 4.480430000000002 17.058899999999998 3.7205399999999997
Si 714 4.380489999999998 18.6776 5.915879999999998
Si 736 9.374210000000001 14.6859 4.159040000000001
Si 753 15.918600000000001 20.221700000000002 4.26961
Si 760 5.3181699999999985 15.709500000000002 9.183519999999998
Si 765 11.447100000000002 16.1409 4.997630000000001
Si 799 15.643199999999997 0.9480000000000004 5.140229999999999
Si 817 16.2351 1.6579799999999985 7.51052
Si 819 13.653700000000004 20.3062 2.834240000000001
Si 831 8.10041 16.6833 8.76885
Si 855 6.274380000000001 18.6202 8.617050000000003
Si 930 10.1861 16.002 7.34573
Si 941 15.451899999999998 3.1738099999999996 9.72053
Si 983 9.40186 19.041100000000004 8.95476
O 2 6.931630000000002 19.855999999999998 7.648790000000002
O 19 11.4556 16.954200000000004 6.608349999999998
O 19 11.4556 16.954200000000004 6.608349999999998
O 27 17.5939 0.8592999999999975 7.9398599999999995
O 29 14.082200000000004 1.0225000000000009 4.39236
O 47 16.535 18.864300000000004 4.89725
O 48 4.952729999999999 17.062500000000004 5.44453
O 48 4.952729999999999 17.062500000000004 5.44453
O 67 4.886710000000001 20.218099999999996 6.198450000000001
O 80 3.1386000000000003 16.174200000000003 3.923939999999998
O 86 5.746570000000002 15.988899999999997 3.30696
O 112 5.498450000000002 19.569099999999995 9.725170000000002
O 116 8.487869999999997 15.467400000000001 7.635659999999998
O 116 8.487869999999997 15.467400000000001 7.635659999999998
O 116 8.487869999999997 15.467400000000001 7.635659999999998
O 125 6.41677 14.409400000000002 8.941109999999998
O 125 6.41677 14.409400000000002 8.941109999999998
O 126 8.5536 13.195800000000002 8.43893
O 128 4.320080000000001 16.0356 7.84366
O 136 10.991000000000003 14.885000000000002 8.165479999999999
O 163 14.287699999999997 2.915980000000001 10.846900000000002
O 167 9.632569999999998 17.2334 8.34451
O 167 9.632569999999998 17.2334 8.34451
O 167 9.632569999999998 17.2334 8.34451
O 181 4.21266 18.789599999999997 4.2865
O 181 4.21266 18.789599999999997 4.2865
O 185 15.313800000000004 1.6309199999999997 9.065749999999998
O 185 15.313800000000004 1.6309199999999997 9.065749999999998
O 212 2.905429999999999 17.985199999999995 6.574809999999999
O 213 4.36261 17.5675 2.1231399999999994
O 223 13.165699999999998 21.8815 2.3241000000000014
O 229 6.9339200000000005 12.918600000000001 6.75245
O 253 15.078399999999998 4.628820000000001 9.108819999999998
O 321 14.299299999999999 19.668200000000002 4.333580000000001
O 321 14.299299999999999 19.668200000000002 4.333580000000001
O 321 14.299299999999999 19.668200000000002 4.333580000000001
O 322 12.1388 17.4881 4.34684
O 322 12.1388 17.4881 4.34684
O 350 9.788059999999998 19.452900000000003 7.4054
O 351 5.1008 18.2747 7.49071
O 351 5.1008 18.2747 7.49071
O 353 11.653700000000004 19.623 5.71903
O 364 12.221300000000003 19.8436 3.4370699999999985
O 364 12.221300000000003 19.8436 3.4370699999999985
O 373 10.010200000000001 15.433899999999998 5.771919999999998
O 373 10.010200000000001 15.433899999999998 5.771919999999998
O 373 10.010200000000001 15.433899999999998 5.771919999999998
O 384 4.20579 14.652800000000003 9.831619999999997
O 427 14.9971 1.326500000000003 6.603640000000002
O 427 14.9971 1.326500000000003 6.603640000000002
O 436 16.827100000000005 3.21556 10.553299999999997
O 438 16.141899999999996 0.9817999999999998 3.523530000000001
O 439 6.50759 16.7593 8.362300000000001
O 439 6.50759 16.7593 8.362300000000001
O 439 6.50759 16.7593 8.362300000000001
O 440 14.0855 19.2904 1.6694299999999984
O 441 16.4241 3.31175 7.74418
O 441 16.4241 3.31175 7.74418
O 442 13.711699999999997 18.1471 6.11007
O 455 6.242799999999999 15.077299999999997 6.549939999999999
O 464 9.014120000000002 20.497199999999996 9.589009999999998
O 471 10.808800000000002 18.8918 9.74625
O 476 8.16272 15.9209 4.191559999999999
O 520 17.4121 20.8304 3.6959599999999995
O 528 15.793899999999997 21.4483 5.3879100000000015
O 528 15.793899999999997 21.4483 5.3879100000000015
O 544 7.90437 18.307199999999998 9.3081
O 544 7.90437 18.307199999999998 9.3081
O 544 7.90437 18.307199999999998 9.3081
O 570 8.360780000000002 15.997699999999998 10.204600000000003
O 579 12.644200000000001 15.109399999999997 5.321760000000001
O 583 5.243280000000002 16.7904 10.319100000000002
O 588 10.804999999999996 15.324200000000001 3.6933100000000003
O 588 10.804999999999996 15.324200000000001 3.6933100000000003
O 640 8.64105 14.275200000000002 2.7840799999999994
O 644 9.608059999999998 13.095400000000001 4.755489999999998
O 654 17.0222 1.8087599999999995 5.720780000000001
O 654 17.0222 1.8087599999999995 5.720780000000001
O 668 15.2238 21.053299999999997 2.89583
O 668 15.2238 21.053299999999997 2.89583
