12
Lattice="22.1136 0.0 0.0 0.0 22.1136 0.0 0.0 0.0 22.1136"
Si 766 21.001899999999996 0.2961000000000027 0.5557999999999979
Si 990 0.23740000000000094 2.4085500000000017 1.6174399999999984
O 9 0.5625 3.6976200000000006 0.7094999999999985
O 118 21.076399999999996 1.9512199999999993 0.5561999999999969
O 118 21.076399999999996 1.9512199999999993 0.5561999999999969
O 327 21.6472 0.37119999999999465 2.0964799999999997
O 327 21.6472 0.37119999999999465 2.0964799999999997
O 428 19.9436 21.2266 0.962299999999999
O 433 1.6759999999999984 1.7666499999999985 1.7351099999999988
O 518 0.30749999999999744 21.989300000000004 21.8914
O 621 21.5819 2.9140300000000003 2.9355900000000013
O 634 20.2306 0.5628000000000029 21.1136
