6
Lattice="22.1136 0.0 0.0 0.0 22.1136 0.0 0.0 0.0 22.1136"
Si 690 6.441659999999999 12.465099999999996 3.3264400000000016
O 348 5.356169999999999 11.4282 2.5347299999999997
O 367 7.783239999999999 11.470099999999999 3.1697500000000005
O 432 6.517060000000001 13.5699 2.054590000000001
O 496 7.02741 13.8616 4.2760500000000015
O 568 5.812360000000002 11.969200000000004 4.915189999999999
