6
Lattice="22.1136 0.0 0.0 0.0 22.1136 0.0 0.0 0.0 22.1136"
Si 690 6.089220000000001 12.513700000000004 3.3672000000000004
O 348 5.138000000000002 11.4327 2.5607100000000003
O 367 7.52092 11.6711 3.261309999999998
O 432 6.189309999999999 13.5806 1.989139999999999
O 496 6.589559999999999 13.912499999999998 4.308789999999998
O 568 5.419830000000001 12.0108 4.925810000000002
