30
Lattice="22.1136 0.0 0.0 0.0 22.1136 0.0 0.0 0.0 22.1136"
Si 698 9.45879 1.1670999999999978 20.0333
Si 752 7.997019999999999 0.15409999999999968 2.18206
Si 870 8.134130000000003 20.981799999999996 21.541100000000004
Si 901 8.037299999999998 2.6914499999999997 18.4731
Si 965 10.0215 20.122000000000003 1.1372
O 34 10.889700000000001 1.0733999999999995 19.1925
O 43 9.400110000000002 3.6640499999999996 18.3372
O 57 7.12875 0.2370999999999981 21.653200000000002
O 78 9.30293 19.364499999999996 2.3961000000000006
O 83 7.29682 20.882099999999998 3.0566899999999997
O 162 8.55685 1.0345999999999975 18.3389
O 162 8.55685 1.0345999999999975 18.3389
O 205 11.1964 19.0151 0.7838999999999956
O 251 6.414170000000002 2.4922199999999997 18.8269
O 265 8.670489999999997 1.4266999999999967 1.265899999999995
O 266 9.362100000000002 19.705500000000004 21.7246
O 266 9.362100000000002 19.705500000000004 21.7246
O 271 6.398779999999999 0.7805999999999997 2.0289199999999994
O 330 7.030709999999999 19.926999999999996 20.9656
O 381 7.63307 2.7674200000000013 16.743
O 424 9.002399999999998 21.7585 20.3618
O 424 9.002399999999998 21.7585 20.3618
O 487 8.773500000000002 0.5553999999999988 3.5658600000000007
O 504 10.3753 1.479379999999999 21.409300000000005
O 527 8.42512 2.425039999999999 20.1624
O 527 8.42512 2.425039999999999 20.1624
O 536 10.877399999999998 21.4216 1.5136700000000012
O 569 8.52626 21.169 1.016299999999994
O 569 8.52626 21.169 1.016299999999994
O 569 8.52626 21.169 1.016299999999994
