1008
Lattice="22.7523 0.0 0.0 0.0 22.7523 0.0 0.0 0.0 22.7523"
O 9.77264 9.55932 10.9894
O 20.935 23.2266 14.276
O 7.84278 21.4702 17.9718
O 19.0986 22.3344 6.02612
O 15.4959 22.9783 23.5253
O 14.7281 20.0724 18.0458
O 4.53964 1.40412 2.55485
O 8.93526 11.9507 1.30404
O 21.9742 19.5215 17.8442
O 23.623 5.6816 11.33
O 2.61895 15.7473 19.1873
O 18.2372 6.66881 23.7204
O 2.15628 5.26085 1.73433
O 16.6782 10.602 10.2663
O 21.0003 7.81854 5.88289
O 14.0139 22.5264 18.7628
O 14.1866 8.00939 20.5716
O 20.2478 11.8604 3.1198
O 5.94754 15.5337 9.81132
O 13.2216 18.2352 17.4591
O 15.9491 14.7752 21.365
O 16.7337 21.0127 19.9293
O 9.48753 18.8223 22.5036
O 22.0268 12.5182 21.1417
O 19.5747 18.7828 22.0296
O 14.4644 21.4927 8.97135
O 20.5811 13.6756 14.4628
O 18.4916 2.17303 18.6301
O 16.7489 5.57959 6.24548
O 15.0929 3.30135 15.4522
O 6.93503 10.1766 23.7672
O 10.4789 13.7131 9.687
O 22.5094 15.4683 14.6529
O 13.54 12.4845 12.3297
O 10.3848 1.60972 7.93735
O 23.3275 12.9734 15.2328
O 16.7884 1.82901 2.70432
O 12.1152 14.3235 11.7327
O 8.45109 10.1666 15.4888
O 21.2266 13.0147 16.8167
O 11.4921 8.15431 2.04988
O 23.241 5.48935 21.2379
O 15.2032 17.5739 12.2469
O 9.05562 5.1064 8.23934
O 13.2479 8.04195 7.6078
O 18.3905 5.59542 15.1017
O 10.3832 19.9584 15.3838
O 17.2552 21.3672 16.0692
O 5.78153 19.1333 15.659
O 6.1935 3.61803 21.9541
O 7.27805 3.46723 3.9964
O 12.6897 8.87391 18.7033
O 22.1125 12.5969 12.559
O 14.5072 3.79433 5.76608
O 16.552 12.599 17.4457
O 18.7809 16.7532 21.325
O 2.46451 20.6113 2.13326
O 6.28414 23.6969 10.9258
O 12.4236 7.75499 14.3123
O 6.11461 22.9341 19.0345
O 7.09984 18.366 4.25241
O 15.4419 20.0315 22.3612
O 23.4241 23.5261 19.9221
O 9.36496 12.3248 4.28149
O 21.8134 21.3407 12.705
O 5.11908 9.73254 7.91341
O 13.3465 6.92186 9.88927
O 5.61443 21.7573 16.6114
O 1.77286 6.22774 8.7829
O 5.02384 1.44418 8.04724
O 8.53819 10.8175 12.8571
O 22.9782 9.52031 6.08234
O 12.1288 9.33462 9.71769
O 12.6705 4.89994 4.25529
O 18.2877 17.7632 3.57324
O 17.4967 18.6346 18.7234
O 21.7245 21.8248 16.3788
O 22.8579 15.091 11.7788
O 8.62683 21.8146 11.8202
O 19.8199 23.5691 16.6168
O 4.08667 17.5005 15.1712
O 4.33231 5.18481 18.3277
O 4.32526 3.42279 20.1143
O 8.4698 22.4171 14.4204
O 20.5796 6.59091 2.24453
O 10.3862 16.5876 6.87572
O 6.43862 17.4968 13.747
O 6.36768 2.03648 5.98487
O 8.49367 19.8739 13.7935
O 16.4813 7.13386 8.05439
O 1.38846 8.77493 17.9714
O 22.3735 20.458 1.71859
O 23.5637 1.62225 17.5285
O 12.5622 17.8587 6.26594
O 22.2705 6.53623 17.4828
O 2.98906 1.54742 18.9702
O 20.4407 19.3881 20.0079
O 17.3823 9.68488 20.022
O 2.97564 6.78325 20.1564
O 13.8366 1.59867 4.89856
O 1.40246 15.7387 9.61282
O 3.59312 13.8139 23.3841
O 7.19894 5.46491 2.66696
O 23.1416 19.6329 20.0352
O 22.6934 19.1441 3.98907
O 5.09022 10.6341 10.3725
O 18.6322 11.1235 5.04671
O 3.32722 18.4018 4.76676
O 16.653 20.6162 10.0506
O 13.2529 5.10514 19.169
O 20.8789 13.7927 19.2988
O 14.4488 9.44562 5.74672
O 6.91392 20.6709 20.083
O 16.793 16.7713 22.4953
O 21.1316 7.11727 21.25
O 18.2539 20.3325 3.20077
O 9.05729 16.426 18.2032
O 8.8583 19.1136 2.17488
O 22.3175 3.44575 11.278
O 20.0422 5.26775 17.0028
O 12.5875 5.62695 6.74154
O 7.57727 10.7314 8.86257
O 18.6619 7.66418 6.76216
O 14.6413 10.2894 11.7947
O 18.6743 9.57811 22.2546
O 6.6891 16.1637 19.5348
O 8.50273 14.2464 19.5542
O 15.578 17.3914 17.6664
O 4.67049 17.8671 18.9597
O 1.93308 13.1423 12.8987
O 15.5016 3.31495 10.23
O 19.5365 16.9658 7.63612
O 9.88422 12.0658 14.7736
O 3.15863 14.8223 11.305
O 4.52225 9.66354 1.43901
O 23.7612 13.1243 10.5814
O 12.0071 16.5858 19.0308
O 20.1336 5.00333 22.976
O 12.7185 9.47355 16.1657
O 2.8693 9.45611 6.20876
O 2.60556 9.79905 8.80977
O 21.3194 23.2456 5.31888
O 19.7062 3.17027 7.74778
O 2.44695 2.52858 15.8036
O 19.06 6.03943 4.8057
O 21.5662 11.3626 14.6459
O 19.233 10.5018 16.247
O 21.3249 12.9125 5.34417
O 17.4386 10.381 17.954
O 10.3115 5.52935 17.2056
O 4.48506 10.5781 13.0241
O 7.02926 5.41306 17.2333
O 18.6665 9.55775 3.02467
O 15.0928 4.97449 8.2754
O 4.90279 13.1318 4.5665
O 2.65438 23.8247 8.55939
O 4.33797 19.3426 23.0844
O 19.7097 2.69 21.7527
O 20.4792 16.6446 15.6612
O 10.7811 8.00753 16.9219
O 10.1277 12.3056 19.6609
O 17.5974 4.73126 8.47544
O 8.02679 23.2202 7.5887
O 15.1878 4.04066 22.1711
O 11.2298 12.7791 6.10351
O 8.50319 6.27236 12.6627
O 3.84903 4.98681 11.7197
O 10.6348 18.3846 17.9872
O 6.14442 8.24677 5.61656
O 4.86299 22.0797 21.1083
O 3.02408 19.4139 20.3357
O 22.8659 17.928 1.73296
O 2.88781 3.31769 9.8396
O 13.1502 10.2314 21.0111
O 9.33686 3.53332 21.735
O 6.89543 6.79356 7.72994
O 16.2442 16.3219 14.1289
O 8.77139 6.96026 15.3829
O 9.29759 19.8071 4.64819
O 6.59227 8.59633 14.3208
O 5.75911 12.6053 17.9208
O 3.70744 20.5894 15.6103
O 10.2474 10.7942 17.4246
O 12.8703 11.5265 4.54846
O 5.38748 14.0783 6.93636
O 16.7233 3.05223 20.2406
O 1.96651 18.0358 8.72534
O 2.63798 7.60644 2.56069
O 23.6417 13.6942 23.5042
O 20.906 6.46758 14.5101
O 20.9022 8.7066 9.84902
O 13.4354 13.6847 23.8232
O 8.49148 23.8484 23.6872
O 20.1096 6.97339 18.8319
O 20.8815 14.2992 23.4597
O 2.57292 11.8921 19.8765
O 23.115 2.32365 5.89738
O 20.9378 1.24397 18.9827
O 2.37248 14.4871 21.3733
O 4.19313 3.44719 6.44026
O 7.41138 8.71448 11.8526
O 13.534 18.9443 3.4643
O 7.62994 16.8477 6.90515
O 7.73068 6.23947 5.32311
O 11.8068 20.2242 5.25141
O 10.9177 20.7742 11.7816
O 9.4447 7.55076 3.65352
O 6.4892 7.35059 19.2175
O 1.73951 21.9718 11.986
O 1.2243 15.9333 16.9142
O 18.2859 13.6355 5.49929
O 2.50326 5.59272 13.8187
O 3.72291 20.1076 17.8208
O 4.60723 19.2802 13.1891
O 11.5236 13.8619 3.77037
O 15.6552 14.6305 16.0973
O 14.0482 22.1428 6.42989
O 9.98801 13.1064 12.3164
O 16.8511 9.49993 6.77486
O 6.59247 3.52964 15.3034
O 18.9335 14.1249 12.2816
O 5.59215 8.61899 21.3184
O 13.4733 1.65953 16.9864
O 14.8625 1.83223 13.244
O 5.0264 9.36168 18.8153
O 5.89818 3.52779 1.73793
O 20.2201 3.83329 14.9555
O 13.3429 5.50699 14.3083
O 16.0183 13.3221 8.15942
O 7.38055 14.6621 17.4536
O 2.77689 5.29918 6.61664
O 16.585 8.06742 22.324
O 9.02644 13.4741 22.0407
O 11.3843 20.6022 2.39046
O 8.34123 12.2634 16.9043
O 4.88471 4.15398 4.11417
O 1.1981 14.2649 4.91269
O 20.7258 10.3797 7.09513
O 15.1809 14.6606 6.06948
O 22.5298 2.49813 3.38132
O 4.2597 3.62827 13.9424
O 14.0598 12.8172 17.0086
O 14.6055 6.24843 5.06749
O 21.2255 23.3337 21.4517
O 7.21419 19.2199 6.83412
O 13.1479 4.22524 16.7382
O 12.7042 19.3999 22.0661
O 21.6101 19.7264 10.8913
O 21.5662 20.6259 22.0717
O 15.7546 5.84799 10.6075
O 16.6357 8.32098 11.1735
O 6.45822 3.86404 7.65783
O 7.19896 21.6829 5.81898
O 15.9484 5.64276 20.282
O 12.1233 18.2056 1.47375
O 8.74472 14.8498 7.86642
O 23.645 18.7914 6.44195
O 3.61714 7.67184 17.9469
O 16.4158 20.934 6.02309
O 12.5431 2.70001 7.0079
O 8.68346 16.6817 4.90762
O 12.5606 15.9286 7.96672
O 21.9776 23.5971 7.728
O 19.3805 15.4189 9.71274
O 9.38222 4.89488 3.81598
O 10.3632 3.23928 11.5437
O 10.3568 21.2975 9.42323
O 15.1569 14.2928 18.8261
O 16.4031 18.876 7.68309
O 13.4778 9.42064 2.90357
O 10.6233 5.94116 14.0528
O 5.99936 2.07233 13.1634
O 6.27512 5.94337 13.7093
O 1.49953 9.46755 3.89412
O 2.88595 23.6359 13.7886
O 11.9921 3.77006 21.2947
O 19.2502 12.0426 22.8708
O 8.68913 1.22579 5.1749
O 3.77173 9.37502 16.4404
O 9.80919 18.4472 11.441
O 17.956 2.54353 9.62354
O 9.00115 4.32849 1.39998
O 18.9012 4.70596 2.56636
O 18.5563 7.38264 20.7765
O 22.005 17.6952 13.5154
O 2.18554 18.1088 18.3916
O 19.5934 20.7786 23.6154
O 18.1246 19.1779 5.74715
O 19.8326 19.4882 12.859
O 3.27962 15.7956 4.965
O 14.3869 12.7529 20.7966
O 5.7926 13.1595 10.8755
O 12.7295 2.44885 14.5603
O 15.4591 8.82769 17.033
O 17.748 4.34491 11.4196
O 23.2323 9.27438 1.57126
O 9.55189 8.41976 13.3729
O 7.4979 23.6996 16.8467
O 18.9872 21.2699 21.1885
O 17.8522 17.6798 12.6001
O 19.3708 14.7332 17.2974
O 19.6797 16.4105 1.72166
O 3.21724 19.5664 7.06395
O 15.883 6.0536 14.9665
O 23.7376 4.49305 4.6723
O 23.0659 13.3988 7.23716
O 22.0349 8.77329 14.1148
O 16.0937 19.2345 3.97329
O 17.8783 12.4737 15.3027
O 4.25594 11.919 6.62661
O 19.6925 21.9293 12.3884
O 22.9206 5.81097 6.40865
O 19.7483 9.72575 18.5956
O 15.4908 17.7707 1.93816
O 22.1092 19.4835 15.231
O 1.80452 5.63423 18.2932
O 2.86756 9.38068 20.6908
O 23.6977 7.96363 21.439
O 20.8375 9.8651 4.5057
O 11.4881 13.0263 16.6045
O 7.3291 3.95795 12.1996
O 13.9751 20.3302 13.446
O 12.6865 18.4561 14.7212
O 17.6998 3.47048 4.53354
O 20.5103 18.6566 2.66976
O 13.7733 4.25518 1.71258
O 1.74928 3.38547 20.3708
O 22.2544 1.29482 12.5641
O 14.0629 17.1616 22.7861
O 16.5996 10.6772 15.7087
O 6.95193 21.6584 10.016
O 14.3966 19.4309 10.553
O 19.7438 17.9431 10.0483
O 3.66904 13.2208 9.20681
O 18.8664 22.3573 18.7976
O 6.21354 8.60525 3.05536
O 23.8513 22.594 6.06833
O 2.44382 9.87363 11.2418
O 15.2791 18.3643 20.0693
O 20.0301 4.36312 10.0296
O 4.7535 12.1214 1.95275
O 13.4494 6.64665 2.52388
O 23.6573 20.4561 8.26342
O 10.2671 16.4066 2.24948
O 12.7127 23.3707 8.37584
O 15.1646 11.5878 13.9894
O 11.3633 5.0454 2.06664
O 7.42007 16.6816 2.30157
O 5.19608 13.0043 13.6138
O 16.7965 5.70613 3.67823
O 10.6901 21.3199 17.4447
O 6.18164 19.7787 17.7475
O 6.11298 3.24508 17.939
O 12.8389 20.8208 15.8809
O 20.3056 11.1751 9.50578
O 21.3198 17.7396 5.65485
O 15.851 13.3455 10.8595
O 23.461 13.4789 19.1117
O 17.2721 18.9863 21.3018
O 19.2887 6.64386 10.6669
O 22.0786 4.04065 8.04396
O 12.3104 20.8546 7.83882
O 22.9069 16.5659 19.1455
O 9.41405 16.1377 10.1062
O 13.1644 22.7882 13.1071
O 17.2287 2.60282 7.17619
O 15.7048 12.7303 1.83332
O 7.71375 13.0753 13.6058
O 16.718 16.5596 6.45275
O 11.0737 3.77441 19.0284
O 6.08066 7.65257 23.4616
O 21.7857 20.3097 6.37088
O 4.2003 21.9042 12.3781
O 11.6466 16.6259 16.3324
O 17.1148 8.09572 15.2929
O 13.5265 16.8273 10.4552
O 5.18801 1.37692 22.8
O 9.94941 1.22579 16.3793
O 7.19645 20.5738 3.38078
O 2.99932 13.2518 17.6721
O 1.155 19.6503 22.3935
O 8.48213 3.47518 6.29245
O 12.0559 22.5632 3.8733
O 17.8953 22.4927 1.74985
O 4.41248 16.2224 20.9309
O 6.46495 9.33962 16.8777
O 14.2891 14.6856 13.518
O 1.77545 7.36477 5.38813
O 1.29231 17.4504 21.107
O 13.6363 20.3713 1.26902
O 10.3139 5.88621 22.2683
O 14.4851 11.2726 22.8352
O 18.9774 12.1846 18.0577
O 15.0315 9.95858 19.1522
O 11.4139 11.6186 10.9094
O 21.4567 2.23141 23.716
O 4.57858 5.68135 2.35551
O 15.2853 5.63307 17.8331
O 13.1043 1.87007 22.9576
O 4.20482 21.9259 9.32176
O 2.55236 15.2828 14.8599
O 13.6958 8.32416 23.2507
O 10.8857 7.13791 8.08189
O 9.77095 21.785 6.14212
O 12.2391 11.4954 1.978
O 21.2563 15.2937 6.68407
O 12.1542 13.486 14.2057
O 1.15893 19.7742 13.4742
O 17.0936 22.8531 7.73486
O 19.5787 21.2878 15.1816
O 19.6643 11.3373 12.9029
O 21.9444 6.44744 9.70405
O 9.24102 2.63712 2.9442
O 11.0494 5.59397 10.1065
O 23.7537 11.2844 17.8929
O 9.0719 1.2483 18.9343
O 23.8215 10.9362 21.7141
O 12.0592 8.00759 5.67628
O 7.10961 12.7796 5.4122
O 10.9561 9.89514 3.72267
O 8.9106 10.124 22.1018
O 10.8167 6.25401 19.6649
O 19.379 15.9474 5.23496
O 3.42194 7.50089 22.4856
O 8.87779 23.1346 9.93696
O 18.1226 18.245 1.16222
O 19.6093 8.73388 13.6764
O 16.1763 2.91328 17.7382
O 21.2962 23.0346 10.7504
O 12.1698 12.2967 22.11
O 18.371 14.3402 23.4126
O 18.4073 17.1162 16.9007
O 6.60157 15.0125 12.4134
O 1.8086 3.54724 12.6596
O 12.4735 18.5192 11.9404
O 3.66442 3.44991 23.1661
O 17.821 4.61003 21.8373
O 21.7207 21.6457 19.455
O 17.2938 2.95278 14.521
O 7.74616 18.3817 18.4311
O 14.9479 21.8496 11.5432
O 17.6302 4.9792 18.7193
O 14.8788 19.1433 15.6697
O 1.67821 8.16127 13.586
O 15.4356 15.3652 1.55952
O 22.8333 11.6222 3.55912
O 19.2316 19.6825 17.087
O 2.33339 11.1845 1.93377
O 17.0107 1.88824 22.7912
O 13.8481 12.5645 6.78288
O 14.8597 16.7811 8.28
O 18.2573 14.1553 21.0158
O 8.73934 21.3087 23.3011
O 6.4105 22.2134 1.1612
O 21.9555 11.8609 23.5783
O 6.46387 16.9096 16.663
O 3.1828 11.9707 14.8825
O 10.9471 22.3197 14.9237
O 21.3597 4.05095 5.31973
O 3.14948 1.25049 21.4472
O 15.7814 5.89489 23.6084
O 23.2099 4.16304 16.6306
O 22.0419 13.839 2.85677
O 9.5002 22.5537 2.98647
O 10.2106 21.9502 20.0189
O 3.78335 16.2458 8.3272
O 18.4579 20.6633 7.84799
O 16.9802 12.8583 13.0626
O 17.7058 22.6944 11.2101
O 4.66519 8.49296 11.2695
O 7.78767 5.50816 22.1617
O 12.2736 20.5117 19.2231
O 8.53424 8.84543 7.65255
O 4.47181 14.0714 19.6445
O 22.066 3.07594 21.377
O 2.9319 1.15509 4.71711
O 9.56405 17.4676 14.7742
O 17.3989 10.3832 13.4353
O 2.62332 3.01827 2.80111
O 18.1081 8.84554 8.99107
O 11.999 7.15389 11.98
O 2.07212 21.985 18.3795
O 2.85911 13.7744 6.96006
O 18.1331 13.3171 10.2482
O 15.47 4.26567 13.0778
O 14.8981 6.6879 12.7001
O 14.2083 14.097 3.58107
O 9.90059 1.73133 13.7354
O 21.3441 21.5263 8.74238
O 5.31204 20.0344 10.8181
O 3.0214 5.64453 4.29511
O 3.54027 7.59359 7.73625
O 14.1197 14.5061 9.36376
O 11.5315 18.031 4.06639
O 1.89289 15.9932 23.5436
O 19.5143 23.1536 8.55465
O 7.38649 15.3979 14.584
O 13.3424 22.1056 22.2459
O 3.48897 12.1616 11.1865
O 12.7869 16.0957 2.95012
O 23.774 3.02502 23.713
O 4.2518 7.42727 13.9058
O 23.7445 8.14048 10.1257
O 22.1124 4.67255 2.30899
O 11.9256 2.90148 9.61298
O 16.9248 15.4172 11.8111
O 10.2345 6.40732 5.83134
O 1.26449 20.4653 16.5359
O 11.6961 23.5936 18.8307
O 21.5884 10.2964 11.8663
O 3.45045 22.3012 23.3694
O 10.0979 19.5875 7.25045
O 13.1083 6.90737 17.1944
O 12.725 2.49546 11.9628
O 20.5048 13.0742 7.81272
O 1.19729 9.43036 15.8374
O 7.5938 9.54862 19.9002
O 11.3516 23.2133 1.54072
O 23.5761 1.48935 10.2408
O 14.3468 20.6634 20.578
O 17.7244 23.0364 13.8779
O 6.35661 6.40353 11.2579
O 20.994 13.718 10.6712
O 9.09697 7.76948 20.9647
O 3.00906 14.1498 2.96409
O 5.84913 11.0279 15.1868
O 16.2818 12.0918 6.03274
O 8.37063 2.77066 8.89778
O 16.5188 23.8574 16.0666
O 5.17149 5.91415 5.79412
O 9.4741 14.4915 5.52491
O 6.97228 19.3387 23.1612
O 19.7647 17.4609 19.024
O 12.3413 11.5478 18.6637
O 21.1374 10.2509 21.7967
O 1.21648 10.7913 13.7933
O 10.6169 23.3856 11.5259
O 5.55432 14.7099 1.97913
O 10.1145 10.7225 8.73142
O 7.66882 10.1766 4.52474
O 21.1395 7.42209 12.1145
O 14.5835 21.9459 4.04163
O 8.20797 18.9381 16.225
O 5.40589 17.2731 5.76129
O 9.33798 19.7162 19.3026
O 22.1269 17.2333 10.4285
O 8.74461 5.08379 19.2013
O 19.2573 14.3396 3.11445
O 14.155 19.63 5.60265
O 4.24699 5.32108 9.05264
O 17.4845 23.2804 20.7335
O 10.8183 13.7344 23.7758
O 4.88191 14.9188 17.2245
O 4.10494 17.2085 10.528
O 5.71075 20.846 7.9341
O 17.3969 6.73687 12.951
O 5.47937 3.33058 10.6579
O 15.0355 17.001 4.56975
O 8.2665 18.2576 9.20099
O 7.47912 17.1716 11.5114
O 11.7759 7.77375 21.4708
O 9.25708 9.42115 1.84408
O 18.8255 9.60675 11.4005
O 22.4077 15.0577 21.007
O 7.40283 22.6881 21.4711
O 13.5313 15.1821 20.6984
O 4.76581 19.6913 2.85428
O 5.18823 20.1827 5.28329
O 6.46568 13.6183 15.7141
O 8.19185 1.68191 11.8757
O 9.31512 17.3899 20.4158
O 20.0113 4.82598 12.6012
O 1.39448 16.2315 3.26264
O 2.68063 11.6199 4.48109
O 23.6825 22.0536 23.0317
O 20.3346 5.71675 7.14531
O 16.4404 8.16218 2.21663
O 8.55514 3.23105 17.136
O 21.7062 9.87527 17.0415
O 13.8085 16.1793 15.2961
O 12.3529 14.0437 18.7023
O 22.7785 2.09939 15.1666
O 2.80395 21.0732 4.94219
O 6.118 18.1817 21.1453
O 8.4924 14.4602 1.84908
O 3.96633 16.4201 13.0373
O 10.9954 2.85503 23.4703
O 8.80547 11.1663 6.4967
O 11.617 16.2488 13.7864
O 14.4415 11.756 9.5615
O 16.7842 7.65408 18.7802
O 3.52792 11.2961 22.3273
O 18.5269 11.6839 7.45076
O 3.22685 1.31948 11.2797
O 18.0769 19.1745 14.7898
O 14.8985 1.64344 7.25481
O 20.2657 15.8759 13.2005
O 5.17635 22.0867 3.57939
O 8.60007 7.14508 18.0494
O 10.2305 9.88917 19.7494
O 4.85041 16.7883 3.16779
O 18.5535 15.1148 14.9156
O 21.6273 18.8217 8.41438
O 16.8824 12.3415 22.3099
O 13.5189 5.99181 22.3826
O 5.84447 17.9216 8.55785
O 22.8847 7.26358 3.25977
O 2.0263 23.2521 2.45753
O 16.9737 15.2596 4.20504
O 18.9167 1.35491 4.15278
O 12.137 4.98134 12.2982
O 22.8861 10.535 9.72048
O 4.75496 1.61 15.4677
O 2.2983 7.18132 15.7744
O 10.6373 1.49806 21.025
O 17.5015 20.343 12.441
O 14.6373 9.04803 14.6192
O 5.50126 12.0314 8.68527
O 5.25739 6.01525 21.6547
O 2.85319 22.7626 16.2936
O 16.7173 10.5106 1.43862
O 22.3494 4.6737 13.5429
O 6.61499 8.53408 9.56108
O 5.33983 7.36855 16.1169
O 13.5305 23.8275 2.32752
O 6.60972 15.3433 4.95643
O 8.07544 14.083 10.3525
O 12.427 15.426 5.3845
O 22.4749 4.40815 19.0741
O 23.3715 22.3876 14.2175
O 5.49414 17.0976 23.453
O 16.5303 7.97574 4.98987
O 19.9825 22.0512 3.35299
O 5.23153 15.1844 14.8213
O 21.1745 2.15246 9.66773
O 19.2694 20.5287 10.5987
O 17.3819 17.0714 9.03284
O 19.0739 11.4736 20.4609
O 14.9304 1.26624 21.3255
O 7.05915 23.7278 3.00537
O 9.00222 16.0958 12.8547
O 11.7045 2.70746 2.8779
O 1.39579 15.8956 7.09542
O 12.7306 10.3446 13.6097
O 9.92383 14.6523 15.0436
O 21.4136 17.3208 21.1914
O 8.86527 16.3674 22.807
O 10.8178 14.7107 20.6345
O 1.79301 17.0198 11.7912
O 19.8407 4.99602 20.4937
O 5.12561 10.4429 4.63684
O 1.18915 17.4837 14.9525
O 11.424 17.1115 22.0067
O 16.1564 10.1814 3.95079
O 18.0309 3.58704 16.7233
O 22.6597 6.68455 23.4511
O 6.46399 4.88876 19.7552
O 14.6166 9.26336 9.27907
O 11.4125 19.1189 9.66917
O 17.0703 2.18096 12.2031
O 8.74154 7.02826 9.6455
O 19.67 1.59978 12.3288
O 20.1136 8.0099 16.5722
O 16.663 23.856 5.29181
O 6.44813 21.1314 12.9953
O 12.3101 10.3718 6.70303
O 13.3667 4.62878 10.4218
O 16.894 16.2648 19.7784
O 15.4322 22.0672 14.3199
O 3.74154 22.4839 6.73975
O 2.73598 18.0866 2.01051
O 13.3412 2.55391 19.4094
Si 5.76853 7.25348 14.5673
Si 2.61336 22.5663 5.61303
Si 22.1789 6.31386 2.14697
Si 5.87851 16.324 2.04662
Si 7.76227 7.84033 8.63777
Si 12.5586 11.8465 6.20558
Si 16.4302 1.23156 6.88444
Si 8.20918 11.5819 5.11114
Si 20.8298 3.49312 8.93769
Si 4.06548 4.80999 5.36045
Si 5.37388 2.69789 7.08575
Si 20.6554 6.73991 17.3853
Si 17.725 19.1526 4.19449
Si 2.55558 7.91894 21.2346
Si 13.61 19.7729 14.853
Si 21.085 23.08 9.016
Si 2.19916 14.5236 22.9422
Si 15.4304 13.6591 17.384
Si 6.36459 14.052 14.0689
Si 4.17271 11.7535 5.06574
Si 3.48199 18.978 18.8744
Si 22.7026 3.32133 4.71118
Si 12.6305 12.7883 17.7224
Si 21.2145 18.474 9.98354
Si 8.59602 1.16334 2.63386
Si 1.76251 19.1945 7.70002
Si 8.95335 1.27466 8.62284
Si 16.2749 17.2819 7.87669
Si 18.887 18.3321 17.9065
Si 6.57059 2.52738 11.7126
Si 12.8386 5.12234 2.71547
Si 7.86887 15.4763 18.7216
Si 18.0822 18.0167 22.2803
Si 19.2276 17.7968 2.29275
Si 4.09722 9.99399 11.5575
Si 12.7769 18.9312 5.03653
Si 13.3297 8.34255 9.19064
Si 19.0291 21.4484 2.25224
Si 5.2154 18.3857 14.3076
Si 2.38485 1.8096 10.0057
Si 9.31475 6.90758 13.8454
Si 22.8516 20.7044 22.94
Si 5.00916 20.2779 16.5529
Si 12.8454 14.7893 3.93147
Si 22.436 3.09932 1.8835
Si 6.14296 8.83304 19.8133
Si 12.1354 6.3123 13.525
Si 11.0034 22.1553 2.73226
Si 9.11017 4.89654 22.6271
Si 2.46105 8.4357 16.7962
Si 17.203 13.684 11.6943
Si 22.1082 13.4373 1.2469
Si 9.37182 11.2006 16.153
Si 10.2713 20.2918 5.80167
Si 1.59236 19.0823 20.9382
Si 16.2941 17.5944 19.1121
Si 16.682 7.20703 23.6257
Si 10.4933 6.93933 21.0543
Si 13.6802 16.0148 9.08962
Si 17.8696 12.0982 6.04696
Si 19.6051 14.8389 1.60928
Si 9.65593 13.6444 20.5447
Si 7.28003 18.0346 7.93798
Si 8.51945 19.6881 23.4775
Si 10.0001 16.0158 14.1145
Si 1.51327 9.63408 9.98745
Si 19.4483 5.81054 1.51184
Si 13.2471 1.21295 18.4936
Si 4.61943 11.6504 14.2593
Si 5.77389 23.0643 2.42068
Si 1.16829 15.9117 15.3313
Si 14.8051 14.2023 20.3824
Si 6.66358 22.5342 17.5772
Si 5.0388 16.7317 9.28238
Si 6.205 7.97852 11.0884
Si 8.8101 16.0283 1.73077
Si 21.741 20.0773 19.3234
Si 16.4518 5.57877 7.77976
Si 17.5978 9.35061 10.3849
Si 13.69 9.36096 19.8217
Si 9.78245 1.87633 12.1206
Si 16.7256 22.5435 15.1433
Si 8.21724 4.24926 2.90011
Si 3.56159 19.4893 1.77415
Si 6.6308 14.502 10.8851
Si 8.52406 10.5101 23.6332
Si 5.56304 21.0307 9.55974
Si 3.05457 2.45549 20.3846
Si 5.54054 17.1138 20.073
Si 15.4559 16.7022 23.4542
Si 17.3491 6.64099 14.6298
Si 10.8134 11.0637 18.8523
Si 4.21268 23.0622 22.1716
Si 12.4531 16.8636 14.9906
Si 22.1261 1.83188 10.8831
Si 18.6119 22.2062 7.61375
Si 9.76091 17.3527 21.9426
Si 4.47339 13.6371 18.0606
Si 8.45324 22.6371 6.10752
Si 13.8184 20.9601 19.0655
Si 13.1536 1.69489 13.242
Si 20.8553 7.80084 13.633
Si 16.1536 6.3807 4.98381
Si 18.0227 21.9401 20.0826
Si 7.85608 22.5651 23.0156
Si 16.2311 6.85794 11.8057
Si 16.312 9.26444 18.4762
Si 16.5549 1.71009 21.24
Si 22.3374 18.9947 5.5614
Si 21.2607 16.4753 14.2635
Si 20.1891 9.52797 17.0388
Si 5.95876 9.03941 1.57027
Si 14.7052 18.7139 17.2032
Si 2.55994 10.8908 21.0957
Si 8.81761 9.32665 12.2973
Si 14.4655 5.00419 23.1495
Si 1.64436 5.73985 5.51719
Si 17.754 8.68567 21.3141
Si 3.94604 22.9962 8.20546
Si 17.4388 1.95266 4.20968
Si 9.22865 6.26268 4.61307
Si 10.4183 13.3824 4.88749
Si 4.17301 4.28879 10.2546
Si 3.80487 11.1091 1.21513
Si 18.5548 10.8065 19.0682
Si 15.983 9.20842 15.5479
Si 13.5789 5.08913 5.57172
Si 16.6022 2.8123 16.0965
Si 17.3387 19.9367 6.9114
Si 10.3818 23.4436 19.706
Si 12.446 6.02449 10.8205
Si 16.9868 2.99898 10.794
Si 12.4206 10.6279 3.28779
Si 19.1801 5.0937 11.1768
Si 23.0455 4.03856 20.5144
Si 9.24866 13.4504 23.6475
Si 9.00543 9.35118 20.6898
Si 6.29593 20.5562 6.4948
Si 23.0782 18.6261 14.2511
Si 13.1213 8.13847 2.04576
Si 2.14669 16.4646 8.37036
Si 5.03857 20.5574 12.3241
Si 11.5937 17.1766 2.73629
Si 15.0784 10.4256 10.2419
Si 19.1103 4.4216 15.9319
Si 17.5093 3.40258 18.454
Si 6.5222 5.05457 21.3816
Si 14.4216 21.8231 13.0874
Si 20.8062 23.0853 12.504
Si 1.46593 14.3428 6.50589
Si 14.7404 14.0122 2.04165
Si 19.6342 10.8091 21.9099
Si 4.96115 8.62929 17.2917
Si 8.82946 1.68811 17.4066
Si 5.6265 20.5614 3.78696
Si 19.9678 17.8795 20.6456
Si 16.7891 11.7008 14.2637
Si 13.5264 11.6017 21.5899
Si 12.4659 3.82594 19.7583
Si 9.38006 18.0079 18.863
Si 1.54348 8.94127 5.45019
Si 15.1367 15.3916 14.7915
Si 21.8986 23.1316 19.9544
Si 2.45945 13.3571 11.3747
Si 15.1213 13.2301 9.46842
Si 20.0529 13.4285 17.9048
Si 11.2577 21.17 15.9949
Si 13.6117 23.2056 3.80528
Si 19.5797 10.5948 3.82276
Si 18.2129 13.1796 22.2942
Si 3.60215 9.19812 7.63583
Si 10.8018 2.80574 21.9091
Si 8.79391 10.4711 7.87515
Si 12.2843 1.83755 1.5716
Si 6.22213 15.3025 16.1331
Si 3.17462 1.23658 15.3208
Si 9.00539 12.2981 13.3301
Si 23.6498 2.68042 16.3498
Si 11.0792 13.2083 11.0882
Si 1.47885 17.0751 1.91943
Si 16.5966 16.6794 12.6034
Si 20.7723 7.25926 10.5525
Si 11.9043 2.00254 8.26533
Si 7.64886 20.0092 18.8004
Si 18.2061 3.23157 8.20032
Si 13.9163 2.37813 6.20315
Si 10.898 10.285 10.0765
Si 15.0883 20.777 10.2657
Si 5.3149 4.1156 19.0093
Si 8.16723 19.3206 3.59804
Si 7.37576 16.3811 13.0116
Si 10.2471 5.05941 18.6963
Si 1.84657 12.4981 18.5111
Si 13.0372 9.00299 6.31472
Si 8.76167 17.4815 10.6314
Si 4.98282 7.44873 22.2557
Si 10.494 3.57026 2.18455
Si 7.04399 16.9513 5.29677
Si 7.64379 22.8271 10.9065
Si 3.90268 16.0557 14.5826
Si 4.28164 13.6435 2.06856
Si 15.9436 11.6309 23.4081
Si 17.4067 15.655 21.2106
Si 23.4245 21.2408 13.0418
Si 7.1364 3.85139 16.7883
Si 3.12892 4.36039 13.081
Si 2.71707 7.12951 14.1922
Si 3.01996 1.56547 3.12694
Si 1.58198 11.0507 3.36697
Si 18.8637 9.95406 12.9432
Si 18.2997 19.0961 13.2083
Si 18.4507 20.3343 15.8493
Si 22.4402 13.5828 11.3815
Si 19.8724 22.9146 4.7253
Si 4.21521 17.0652 4.62495
Si 16.8445 23.6954 1.34337
Si 18.5066 14.8428 4.49093
Si 11.5908 6.83661 6.68217
Si 14.9269 21.0984 5.42726
Si 2.67362 21.2385 16.8453
Si 6.87256 18.4389 16.9112
Si 3.16206 6.33654 18.6143
Si 19.796 6.77937 6.04885
Si 13.4251 22.047 7.87699
Si 23.2559 9.87578 17.287
Si 3.26495 16.408 11.6136
Si 11.9618 16.4035 6.59749
Si 13.1049 13.8861 12.9001
Si 3.44086 15.04 20.3474
Si 8.04424 3.92265 7.82045
Si 13.513 2.87487 15.904
Si 19.0918 15.9097 16.1945
Si 1.58804 16.6064 18.3839
Si 20.5133 20.5478 11.8578
Si 18.9807 16.8709 9.12103
Si 23.5083 6.57722 10.0018
Si 12.0105 3.68281 11.1224
Si 13.0263 9.16136 14.6576
Si 22.406 20.3095 16.5383
Si 14.8924 5.55088 13.8708
Si 2.20924 15.0891 3.9796
Si 5.46124 2.71012 14.5062
Si 5.65937 18.4921 22.7048
Si 23.0881 5.23623 17.8045
Si 19.4807 23.7548 18.2087
Si 6.32019 22.1437 20.4069
Si 10.8265 13.3998 15.1504
Si 22.1674 13.7593 20.161
Si 6.27133 9.36385 4.45591
Si 6.88653 9.80293 15.4282
Si 22.6374 6.83706 21.8787
Si 12.6466 17.9509 22.662
Si 17.0207 9.55483 2.68301
Si 22.5898 23.5582 6.27308
Si 23.3653 16.3191 10.9577
Si 4.2575 13.153 7.69147
Si 21.104 2.05862 22.168
Si 3.5504 19.819 5.46849
Si 11.8554 17.4185 17.7041
Si 9.6175 6.93082 16.7637
Si 21.4694 13.6926 6.73861
Si 17.8321 21.1099 11.0148
Si 20.3867 16.6025 6.33285
Si 5.99373 13.9458 5.4017
Si 5.75865 4.66803 2.88523
Si 7.0911 5.50795 12.4388
Si 1.64578 23.4495 18.6603
Si 22.3436 11.2438 22.1711
Si 21.7183 12.8923 15.3186
Si 16.3732 4.3858 21.1943
Si 21.3587 9.41025 5.96299
Si 9.96563 6.17441 9.04481
Si 4.69101 12.3205 10.1166
Si 22.7499 16.582 20.7239
Si 11.1895 19.2414 11.2763
Si 8.02261 21.304 13.2961
Si 21.2811 11.3599 13.015
Si 8.94072 15.8297 6.45496
Si 17.5141 8.30149 7.66096
Si 14.0431 11.1329 12.9591
Si 15.8748 19.8011 20.7834
Si 5.26054 2.95566 23.0918
Si 13.7026 5.40843 17.5875
Si 3.14631 6.0112 7.99368
Si 3.07954 6.08594 2.74349
Si 7.02412 13.0727 17.0545
Si 11.068 20.1029 8.49858
Si 22.0624 20.3754 7.98689
Si 21.6313 4.87374 6.72084
Si 23.566 9.32617 14.2233
Si 12.3101 8.365 17.2699
Si 19.4261 14.5383 13.7596
Si 20.8392 4.92113 13.9337
Si 10.0402 22.0089 10.8849
Si 17.7015 11.5601 16.7475
Si 15.2949 13.1794 6.70939
Si 6.49621 6.78197 6.19731
Si 12.1269 12.7729 23.6504
Si 16.1544 2.8328 13.3482
Si 16.4787 6.08616 18.8082
Si 22.5471 23.709 14.1508
Si 9.20764 19.0404 14.9635
Si 13.3164 7.54477 21.8504
Si 2.4099 3.72929 1.32253
Si 6.01736 10.414 9.0174
Si 2.97365 22.9499 12.3684
Si 12.1476 15.1712 19.8289
Si 14.7903 4.70645 9.8105
Si 15.9593 15.8901 5.24743
Si 21.5559 12.5902 3.78139
Si 2.09774 22.0089 1.42309
Si 10.6662 20.7131 19.0251
Si 9.19045 14.6883 9.41935
Si 21.3444 10.1943 10.2513
Si 20.4511 22.4906 15.6169
Si 19.3234 4.19564 21.8793
Si 18.1675 23.6188 12.4495
Si 20.0243 11.5119 8.00783
Si 23.2198 4.37624 12.2406
Si 19.9808 20.3752 22.1011
Si 7.73772 2.51552 5.25908
Si 1.21504 8.35269 2.62219
Si 22.0487 19.1391 2.53661
Si 19.8898 6.63609 20.3581
Si 12.6169 19.5914 2.24988
Si 10.2522 8.69662 2.84591
Si 14.1744 23.3604 22.6302
Si 9.78953 23.3815 14.8803
Si 19.4174 14.1052 10.6813
Si 13.8875 20.5665 22.321
Si 1.7221 12.3064 14.2855
Si 18.1776 4.95504 3.99428
Si 15.0238 18.2085 3.4776
Si 13.9216 18.1202 11.3649
Si 7.48025 6.07617 18.6611
Si 15.9807 9.43193 5.40912
