1008
Lattice="21.2067 0.0 0.0 0.0 21.2067 0.0 0.0 0.0 21.2067"
O 7.64993 7.70343 12.1605
O 17.9577 18.2425 14.7683
O 5.36132 17.6783 18.9038
O 17.0418 17.8021 8.20189
O 14.0123 21.0799 3.29644
O 11.3856 15.8761 20.8296
O 3.40205 22.2547 4.41719
O 7.16073 9.29288 2.9041
O 18.1311 15.3655 18.3263
O 21.1721 3.01998 14.4703
O 1.91398 11.2407 20.1826
O 15.5884 4.86981 4.4724
O 22.5121 3.22072 2.89927
O 14.2629 8.18461 11.856
O 19.8075 6.71749 7.25081
O 10.7827 18.4745 20.3835
O 11.3724 6.11877 21.681
O 17.2318 8.40999 3.3818
O 4.79764 13.3805 11.4363
O 10.4529 14.9535 18.661
O 14.0519 11.3384 22.5981
O 15.0817 16.4538 20.0569
O 7.88662 15.3575 2.47713
O 19.9242 7.45842 20.6963
O 17.6462 15.078 2.32511
O 11.9918 19.0868 11.64
O 18.1942 11.8543 15.0707
O 15.9863 20.9057 19.0299
O 15.2617 4.67198 9.50863
O 12.8102 21.5405 16.3261
O 5.43682 7.43665 3.17699
O 9.50567 10.2018 11.5889
O 20.4001 11.1787 15.6568
O 11.7409 10.2576 13.1505
O 9.66478 22.1223 9.35738
O 22.3451 9.18223 16.4321
O 16.0593 19.823 4.17086
O 10.0884 12.2943 13.0392
O 7.1071 7.14753 17.3406
O 19.6014 9.26525 16.7581
O 10.4544 6.19033 2.8216
O 20.7261 2.33633 22.2475
O 13.0659 15.5746 14.1881
O 8.21243 3.40364 8.71271
O 12.2465 6.70469 10.2228
O 16.2797 3.49103 16.8623
O 7.52527 16.4951 17.3322
O 14.2818 16.9001 16.7755
O 3.18164 14.3321 17.4979
O 3.39377 22.3998 22.7819
O 5.14457 22.696 5.66888
O 11.3144 5.84887 19.1957
O 17.462 9.7397 12.3605
O 11.0193 2.18462 7.6176
O 14.7421 10.5146 19.1077
O 16.3238 11.9752 21.2451
O 22.3566 18.0559 3.26692
O 5.84036 21.9105 11.5874
O 11.0339 5.96184 16.058
O 4.08919 19.6244 19.2142
O 7.21127 14.9957 6.51601
O 13.5352 17.1713 22.0396
O 19.9791 18.5253 21.1522
O 8.98044 10.0156 5.485
O 19.7393 16.089 12.7703
O 3.77402 7.28851 9.18058
O 11.0127 5.24674 12.0132
O 3.32263 17.6819 17.3911
O 21.9674 4.76764 12.0962
O 2.42504 22.2946 9.25405
O 7.57382 7.68221 14.6839
O 21.3849 8.2166 7.10568
O 9.89823 7.34618 11.1328
O 12.5428 2.87481 5.84358
O 16.2713 15.0338 6.55951
O 15.7288 13.5871 19.5514
O 18.9536 17.7767 16.6611
O 19.0153 11.8344 12.5204
O 8.30394 17.5866 14.0753
O 17.4201 19.7602 17.0327
O 2.48834 13.6933 14.55
O 3.10179 2.46642 18.7489
O 2.22935 21.3842 19.3851
O 6.40216 19.2651 15.0251
O 18.0429 4.36021 4.21218
O 8.65322 14.5229 9.0275
O 4.96973 14.1212 14.8655
O 3.85896 21.6429 7.40173
O 5.92042 16.9112 15.2598
O 14.1515 5.47957 11.4954
O 20.6307 5.30333 19.1714
O 19.6352 16.6378 2.90065
O 20.5157 19.3077 18.375
O 10.8463 15.9148 7.7997
O 19.7477 3.0918 18.0599
O 22.6474 18.9804 20.0605
O 17.4036 14.8993 20.7533
O 15.5877 6.35264 20.9514
O 23.0942 3.65213 21.0129
O 10.9762 20.7229 7.55175
O 21.8313 15.0915 12.2087
O 22.8724 10.4159 3.41273
O 5.85181 3.28969 4.53848
O 19.9828 15.1085 20.3154
O 20.4019 16.6388 5.48256
O 5.40113 8.49715 10.8112
O 16.5226 9.48703 5.56905
O 3.26677 16.2372 7.12697
O 14.1382 17.8789 11.7335
O 10.7802 3.13089 19.9274
O 19.3166 9.71733 19.4338
O 13.1556 8.83709 8.27814
O 4.09503 17.671 20.9548
O 15.5685 13.0864 2.26667
O 18.2409 2.75991 22.5197
O 14.2045 18.168 5.06819
O 7.45172 13.0753 18.9505
O 7.19678 16.652 4.6797
O 20.1066 21.7145 12.9345
O 17.3262 2.70048 19.2526
O 12.1803 4.26972 7.87988
O 6.01789 8.86678 8.4958
O 18.0501 6.15027 8.74489
O 13.5664 9.1901 13.9377
O 18.3706 5.32033 22.3617
O 5.59699 12.843 20.2512
O 6.70873 10.7518 19.6758
O 13.0495 14.5171 19.1757
O 3.47367 13.6823 19.742
O 22.0346 9.50934 13.7734
O 13.2644 22.0982 11.5914
O 18.2031 14.4344 8.91382
O 9.64294 7.92149 15.7899
O 22.6145 10.5985 11.6573
O 3.06563 7.6203 2.05023
O 20.1843 9.69497 11.803
O 9.80741 12.5556 19.0387
O 16.6614 2.63422 3.34048
O 11.248 7.73952 17.6168
O 2.59861 7.63932 6.76599
O 22.3002 6.72867 8.77868
O 18.5474 18.976 6.25056
O 17.7703 22.1259 9.73589
O 22.7208 20.2349 17.2079
O 18.482 4.44216 6.87292
O 18.9077 9.57014 14.2774
O 16.3036 6.78946 18.4019
O 19.964 10.1589 6.55076
O 14.8552 8.08205 19.6383
O 8.05274 4.35241 18.5252
O 2.0766 7.28302 14.096
O 5.44176 2.53247 16.4891
O 16.8644 6.85584 5.5987
O 13.4146 3.41138 10.0797
O 4.42595 10.2791 5.77421
O 21.7802 20.2719 9.63359
O 2.8607 16.5785 2.03154
O 17.5312 21.5385 2.41368
O 17.5424 13.4063 16.6241
O 9.17295 6.4059 17.7351
O 8.14896 9.33682 21.0211
O 15.6438 2.03795 10.4131
O 6.85489 22.2817 8.67345
O 12.9441 22.8458 22.2667
O 9.30283 10.4486 7.8946
O 6.92539 3.55208 14.4622
O 1.9879 22.9065 13.5931
O 8.37948 14.7756 20.0894
O 5.61657 6.45827 7.11739
O 3.0105 20.2448 21.5616
O 22.7332 15.21 20.6266
O 19.904 14.2813 4.08948
O 22.0844 21.854 11.4447
O 13.2316 7.68221 21.202
O 8.14387 21.5616 22.095
O 6.09161 4.65747 8.74649
O 13.5398 13.5868 15.7543
O 8.52849 4.98464 15.9294
O 6.91243 18.0461 6.82184
O 4.28776 6.87273 15.3235
O 5.41035 8.79447 18.7594
O 3.08151 16.0134 15.5753
O 9.23488 8.53868 18.7558
O 11.0012 9.12738 6.47077
O 4.82836 11.5248 7.90935
O 14.2543 21.5346 20.7119
O 22.9879 14.7724 10.0059
O 22.3828 5.52405 3.21199
O 20.2879 11.5902 1.96981
O 18.6658 3.36218 15.4557
O 18.2143 5.52485 11.4515
O 11.4926 10.0192 4.13968
O 6.73278 20.6135 2.5679
O 19.1222 3.66365 20.5634
O 18.4242 10.7519 4.56107
O 22.335 8.44776 20.6002
O 22.3232 21.2666 7.39367
O 18.0949 19.7108 19.7107
O 22.6034 11.6684 22.5138
O 2.83966 2.71696 7.14084
O 5.65522 6.38727 13.2849
O 11.062 16.6827 5.1828
O 6.40497 13.8328 8.9647
O 7.60745 5.25373 6.74915
O 8.97503 17.0746 6.53418
O 9.5532 17.2747 12.03
O 8.82889 5.36804 4.44328
O 3.50634 5.22007 19.6878
O 22.525 17.2119 13.1004
O 21.2832 11.3125 18.1812
O 15.3774 12.1631 7.0049
O 22.53 2.35366 16.3108
O 22.7429 15.8307 18.0468
O 3.90643 15.6188 13.102
O 10.3082 12.0944 6.37748
O 13.0137 11.9719 18.0278
O 11.564 20.7232 9.72762
O 9.69487 10.4372 14.6666
O 14.1381 7.03518 8.86854
O 5.94465 21.4 15.8181
O 16.0272 12.0088 12.1931
O 4.73487 5.88493 21.4922
O 11.4151 20.0168 18.5106
O 11.9745 20.3658 14.427
O 3.43906 7.6637 20.4983
O 3.7597 3.4534 3.76972
O 17.8296 22.6816 17.3296
O 11.5459 3.17471 15.5515
O 13.8821 11.3137 9.12096
O 6.37226 11.0799 17.1891
O 22.0531 3.96131 9.80328
O 15.9757 5.3885 1.95761
O 6.62646 11.0261 22.4563
O 9.35143 17.4537 3.67961
O 7.98787 9.35227 16.5443
O 4.50442 4.49507 6.30169
O 21.7116 11.9465 7.0818
O 18.7464 8.58357 8.19679
O 12.9793 12.7354 7.28331
O 20.1135 21.4687 6.02288
O 3.15201 21.8397 15.6175
O 12.3716 9.75198 18.6317
O 14.2937 3.05937 7.57204
O 18.1239 19.5962 22.3638
O 5.85479 16.5256 8.16679
O 11.2582 22.9464 17.8741
O 10.8504 15.323 2.74733
O 18.8336 16.406 10.5365
O 18.365 17.1656 22.1205
O 14.0722 3.22132 12.1689
O 15.0547 6.05148 13.5241
O 4.73961 2.58292 8.80116
O 6.11419 19.5661 8.66338
O 13.9177 3.60752 21.4611
O 10.6119 12.9295 3.65642
O 6.59925 11.4134 10.1442
O 21.7925 15.9217 7.71198
O 22.8438 4.44587 18.4043
O 12.236 18.5355 9.28062
O 11.5532 2.00219 10.039
O 7.90687 12.7095 7.71867
O 10.7838 14.5066 10.6457
O 19.1766 20.5852 8.05281
O 16.5527 12.6716 9.34739
O 8.18056 3.0055 5.41408
O 7.13682 22.28 13.6944
O 7.56604 18.3722 10.9542
O 12.7111 10.109 20.9737
O 13.3661 16.573 9.75358
O 11.964 7.5197 4.61247
O 9.13342 2.95052 15.6936
O 4.91263 20.7808 13.8888
O 4.60047 4.51987 14.7631
O 21.9994 6.37157 5.81147
O 23.0277 18.9583 15.0102
O 10.0316 22.9088 22.0941
O 18.0588 9.90088 22.4872
O 6.40223 20.858 6.77059
O 2.3723 6.12676 16.5497
O 8.50366 15.2981 11.4497
O 15.3816 20.8572 10.9913
O 5.61558 22.6891 3.00862
O 16.5259 2.96778 5.88693
O 16.6393 4.04336 21.2065
O 19.7348 13.6622 14.4129
O 22.3667 13.5076 18.9089
O 16.947 17.7161 3.03254
O 12.3786 17.7098 6.96813
O 17.1399 16.3968 12.8948
O 2.51311 13.6858 7.42167
O 11.538 10.6872 22.8556
O 4.92877 10.9005 12.1799
O 10.4231 21.0456 16.5252
O 13.8109 6.52845 17.8876
O 15.56 22.4704 12.9161
O 20.3543 6.5448 4.05854
O 8.06932 5.53433 13.5287
O 5.97428 19.3699 17.4044
O 16.5149 18.3383 20.945
O 14.855 13.8405 13.4196
O 18.1897 10.9184 17.0772
O 17.7759 12.4598 2.99557
O 2.09546 17.2577 9.1155
O 13.8147 3.64344 16.1718
O 21.2856 2.47735 7.43039
O 20.6993 10.3498 9.00369
O 19.2688 5.74486 15.5515
O 15.388 16.2172 4.0266
O 16.4907 10.1092 15.8188
O 3.84911 9.42087 7.98317
O 18.6658 18.3439 12.3112
O 19.4237 3.95018 8.93044
O 17.8892 6.25452 20.2523
O 13.7632 14.409 2.9789
O 18.7244 15.2317 15.6571
O 21.7228 2.37416 19.3936
O 22.7627 6.38958 21.7261
O 21.0301 4.76537 22.0125
O 18.8493 8.47832 5.5441
O 10.3642 10.2154 17.4392
O 4.68109 1.96536 13.7906
O 12.1087 18.3238 16.3789
O 11.3504 16.0171 16.5729
O 17.4699 21.6855 5.45892
O 18.1868 15.9976 4.86531
O 12.5971 2.10498 3.38355
O 21.0919 20.5882 20.4681
O 19.3889 19.7701 13.9474
O 12.2948 13.0046 22.8882
O 14.8547 8.64158 17.2695
O 5.13941 19.4473 11.1496
O 11.8496 16.48 11.666
O 17.6291 14.46 11.0808
O 22.013 8.87238 10.4698
O 16.157 18.4063 18.5005
O 6.0433 5.66339 4.97378
O 21.1434 19.2533 6.77649
O 21.8234 7.5298 12.2095
O 14.2442 14.5081 21.3554
O 17.6277 2.8695 13.2386
O 3.73973 9.31729 3.58954
O 11.6885 4.61114 4.27837
O 21.1364 17.2305 10.1318
O 8.39352 12.5306 5.21474
O 10.5741 21.5929 11.6685
O 13.8564 10.355 15.7968
O 10.2799 2.46389 4.34106
O 5.82853 13.7954 3.92591
O 5.17307 8.977 13.4508
O 16.9086 3.26601 8.29517
O 8.06939 17.7931 19.4286
O 3.63137 15.8255 19.1231
O 4.76273 21.8731 17.9299
O 10.0391 17.4045 17.8924
O 18.1302 7.95766 10.4903
O 19.5526 14.8534 7.0242
O 14.191 10.6005 11.6208
O 21.4389 8.72951 18.6033
O 15.7657 16.2389 22.5307
O 16.2157 4.14217 11.9023
O 20.2936 1.99038 9.75917
O 9.90241 19.1187 10.1065
O 20.772 12.3546 20.5283
O 7.16045 13.3543 11.1755
O 10.1383 19.0942 14.8718
O 15.4071 21.6612 8.474
O 13.9779 9.38252 3.84477
O 7.34374 9.9615 14.4577
O 13.7064 14.9215 7.73414
O 8.91084 22.849 19.4743
O 5.46059 4.6651 2.52296
O 19.7252 17.1438 8.10637
O 3.64848 18.1352 13.7384
O 8.75211 14.335 17.2834
O 15.3792 5.88344 16.0315
O 12.6338 14.1779 12.4144
O 2.85301 20.3879 3.00742
O 7.62881 21.2278 17.3721
O 5.09298 16.3265 5.70201
O 2.92562 9.23167 18.6226
O 21.1546 16.7333 22.1733
O 6.37385 3.1427 7.0688
O 10.1881 19.3588 5.32805
O 14.6135 18.5706 2.68124
O 3.73656 12.3058 21.9901
O 4.30841 6.80933 18.1787
O 11.6108 13.6407 14.352
O 20.993 4.97032 7.73823
O 20.7985 14.1168 22.3003
O 13.0072 16.759 3.22004
O 7.5753 2.74135 2.17026
O 12.509 8.4593 2.07962
O 16.9961 9.37366 18.7932
O 13.4731 5.61484 20.1257
O 9.41646 8.80386 13.2346
O 19.0501 20.6505 3.97452
O 3.71658 5.78251 3.97371
O 12.8487 3.58032 18.7912
O 11.2723 21.3169 2.48238
O 2.72903 19.9759 10.2753
O 22.6429 11.9653 16.0818
O 13.2222 6.22519 2.88856
O 9.99028 5.15131 9.10915
O 8.42986 19.9138 7.77026
O 9.93038 8.5323 3.38354
O 19.5057 12.4463 8.03445
O 11.7861 11.4815 15.6646
O 21.4538 15.3595 14.8673
O 14.7196 18.8062 9.28629
O 16.921 16.764 16.727
O 17.6041 7.64555 14.9722
O 20.7804 2.66851 12.1092
O 7.34853 22.2538 4.91864
O 9.70536 3.31304 10.9447
O 22.8545 6.71609 18.6363
O 6.86083 21.0803 19.8443
O 21.8581 8.39978 2.41624
O 11.6935 6.66893 7.61055
O 7.08617 10.5895 6.71557
O 9.46297 7.50563 5.23576
O 6.42294 7.80831 21.9058
O 7.52224 3.13759 20.751
O 17.6619 13.0623 6.46552
O 2.90719 4.71979 22.9389
O 7.43478 20.7691 10.2814
O 16.659 14.1654 4.48954
O 17.1757 5.32709 14.2768
O 13.3978 21.6543 18.4621
O 17.8438 20.3728 12.1574
O 10.3944 8.79759 22.1378
O 16.1779 10.4702 2.52027
O 15.9474 12.0653 17.523
O 6.12766 12.4361 13.2791
O 21.8175 21.3995 14.9001
O 10.3885 15.1298 13.0461
O 22.3096 22.0805 2.73915
O 15.2958 23.0692 22.736
O 18.2723 17.2275 19.7543
O 14.6719 20.797 15.5123
O 5.82189 15.0909 19.5377
O 11.3284 17.4108 13.8496
O 14.6771 2.31511 19.7901
O 12.4214 16.9398 18.8252
O 21.2584 5.30808 14.2936
O 13.4812 11.9208 3.70182
O 21.1137 8.60337 4.78343
O 15.6835 14.6366 17.3839
O 2.23448 7.77041 4.17414
O 15.3722 20.2709 22.4244
O 11.5911 11 8.32204
O 13.4482 14.0233 10.0122
O 15.6928 9.46801 21.5564
O 7.13911 18.0359 2.41917
O 4.84208 19.0366 2.47248
O 19.7968 9.42725 3.09485
O 5.47419 13.1343 17.7373
O 3.17303 9.05344 15.0446
O 8.27719 18.8015 16.8022
O 18.7567 2.00361 7.78643
O 22.5004 21.9252 21.5772
O 14.1102 3.91929 2.79964
O 20.5991 21.8397 17.6724
O 20.8424 11.3319 4.33835
O 7.7421 19.562 4.70394
O 7.54516 19.2054 21.6041
O 3.53647 12.4317 9.70539
O 14.5169 17.2536 7.47448
O 15.5533 10.3521 13.6266
O 15.9605 18.4992 13.1111
O 3.32724 5.72348 12.5582
O 6.05316 22.1553 22.0454
O 9.0868 17.0717 21.6242
O 7.32105 6.8653 9.36294
O 4.04711 10.1813 20.8654
O 19.8258 21.3294 22.5542
O 2.59541 20.4349 5.57217
O 7.23248 14.9181 15.476
O 15.3266 7.93762 15.0886
O 22.2384 22.4788 5.20578
O 15.9376 6.80053 10.6791
O 10.2187 4.60111 14.1671
O 21.115 17.2226 19.2924
O 2.00858 10.7296 8.94094
O 16.1126 10.2077 10.236
O 13.2607 22.8741 14.3617
O 13.0901 4.53191 13.9174
O 13.2125 10.7374 5.98351
O 8.14377 20.5963 15.0835
O 19.0748 18.9314 9.91144
O 3.55891 17.5941 11.3889
O 2.03965 4.33691 5.20118
O 3.16815 4.76967 9.92979
O 12.0872 12.0899 10.858
O 9.43083 14.7704 4.66214
O 22.2051 13.0409 3.24799
O 17.0098 20.043 9.44049
O 6.8445 12.7658 15.6119
O 12.1631 19.2194 3.24997
O 3.04424 8.36881 12.2095
O 11.5746 13.9471 5.83466
O 19.9581 22.9459 3.73705
O 2.34072 4.22887 15.0538
O 1.95617 6.38079 10.7867
O 18.7915 2.47119 5.46106
O 8.52302 22.5561 11.5564
O 13.596 11.9437 13.885
O 10.0756 4.70766 6.5693
O 20.3179 15.8285 17.1389
O 9.12994 20.4155 19.3745
O 19.102 7.47727 12.8398
O 22.1883 19.9558 22.7774
O 8.22278 17.5609 8.88197
O 10.6074 4.29703 17.5124
O 9.67915 21.9523 14.0663
O 17.2925 10.8129 7.68354
O 20.9223 6.79438 17.2162
O 6.20761 6.49446 19.7266
O 9.68953 19.7362 2.82801
O 20.9409 19.514 11.9024
O 11.3642 17.9001 22.7362
O 15.6235 18.5081 15.612
O 5.27728 3.86099 12.425
O 18.385 11.0119 10.2264
O 7.16676 5.22177 21.8335
O 2.48656 11.8131 5.60607
O 5.54884 8.71711 16.2638
O 14.9302 10.0428 7.33395
O 6.62579 2.63943 10.3682
O 14.0761 19.5937 17.3681
O 2.5926 5.2353 7.711
O 8.89283 12.0033 10.0578
O 5.531 16.179 2.58469
O 17.9074 13.0436 19.1286
O 11.1773 8.03516 20.1881
O 19.6948 7.3199 23.0932
O 21.1375 7.73603 15.2284
O 9.77596 19.5068 12.5636
O 3.89268 11.8524 3.74141
O 8.01385 9.18029 10.1627
O 7.01156 8.0844 5.53902
O 19.4009 4.44142 13.164
O 13.6453 19.8992 7.44649
O 5.06402 15.6227 17.2371
O 5.00631 14.4289 7.43281
O 6.33746 16.8544 21.0859
O 19.9287 13.8099 11.5022
O 5.61907 3.68347 18.9336
O 16.1593 11.718 4.95786
O 10.2544 18.3723 7.77723
O 2.46344 3.07178 11.5759
O 14.2502 19.0439 20.2002
O 9.14168 10.679 2.504
O 4.45663 11.3093 18.6614
O 2.25691 13.1552 11.7061
O 4.28558 18.1006 9.08039
O 15.2556 3.61352 14.3236
O 3.4331 21.9833 11.8758
O 13.4414 15.7222 5.52094
O 6.2706 15.8038 10.5141
O 6.54146 14.9385 13.0867
O 9.35645 4.42064 22.4663
O 7.92084 6.93935 2.74267
O 16.63 7.59397 12.9469
O 20.462 9.7388 21.5478
O 5.47382 19.8156 21.5554
O 11.2228 12.1856 20.9355
O 2.6706 16.1693 4.62452
O 4.45312 18.3436 6.87693
O 5.46994 10.8077 14.9875
O 7.13888 20.06 12.8403
O 6.96374 13.9884 21.8588
O 16.6749 22.8813 15.1706
O 21.9926 13.9334 5.57333
O 2.22734 9.54898 5.6682
O 20.0402 18.982 2.48553
O 18.2565 3.01492 10.8123
O 13.5399 5.76306 5.32158
O 6.95951 23.0883 18.2448
O 18.6771 7.73211 18.1405
O 11.3718 13.4127 16.976
O 10.1945 10.115 20.003
O 20.3012 19.8772 15.9558
O 2.1106 18.0326 6.30269
O 4.40672 14.8948 21.7323
O 6.52548 11.2017 4.05304
O 2.73346 11.4589 13.7303
O 8.80341 22.034 3.08018
O 8.3834 8.12488 7.51459
O 9.73885 14.6152 15.3494
O 12.3906 9.45158 10.8551
O 15.2046 4.64622 18.9666
O 2.40436 9.54601 22.4027
O 16.2748 8.06957 8.26723
O 2.02029 19.7458 12.4955
O 15.6576 15.6998 14.8867
O 12.9098 22.3006 8.01907
O 17.2099 14.1097 13.8681
O 3.73281 18.2047 4.41555
O 6.32417 4.93618 16.9375
O 8.68265 7.04746 20.7673
O 3.71544 13.9725 5.37384
O 15.885 12.3505 15.0976
O 20.6835 14.898 9.70095
O 14.9527 8.04907 22.9655
O 11.7294 3.86462 22.9085
O 4.08002 15.0639 9.70153
O 20.5692 4.23414 5.06357
O 21.8446 20.2252 4.23974
O 14.4834 13.731 5.39206
O 16.3314 19.6971 6.68426
O 8.94598 3.07233 13.2345
O 20.2792 6.79569 10.3214
O 3.8607 19.5967 16.444
O 21.3409 4.76169 16.5707
O 10.2786 20.2723 21.8331
O 15.1835 15.7015 12.0681
O 13.0004 7.29267 15.7387
O 3.89258 9.91762 10.2081
O 4.71276 3.19508 21.883
O 22.0641 17.8962 16.9294
O 14.988 6.99123 3.89673
O 19.2514 22.1114 15.1991
O 5.42915 5.85035 10.9621
O 3.87875 4.64211 17.1166
O 11.9912 21.3922 5.03677
O 6.10707 12.6569 5.99155
O 7.24208 10.7985 12.1393
O 10.8164 13.5518 8.47243
O 19.6956 22.4126 20.0712
O 20.5815 17.5292 14.4923
O 3.59773 14.3707 2.78708
O 15.4992 5.32296 7.03133
O 16.4632 17.4732 5.55266
O 3.91594 12.0722 16.0194
O 19.5944 21.1359 10.8044
O 16.5602 17.7738 10.7851
O 15.6889 15.2826 9.40014
O 17.3333 7.53005 22.2054
O 12.8109 19.6833 22.1857
O 4.98905 20.3785 4.77199
O 8.34955 13.5395 13.9484
O 9.55001 21.7396 5.61163
O 21.6964 12.4066 10.2254
O 11.5706 9.14621 15.3732
O 9.17649 12.2635 16.12
O 18.6184 12.8828 21.534
O 7.68164 12.7274 2.82605
O 8.49035 11.8403 21.0798
O 21.4931 12.4148 12.9895
O 16.8902 22.6002 21.3219
O 4.43296 7.83476 5.3914
O 20.6412 13.3817 16.7517
O 9.63629 13.6389 22.5765
O 14.5446 7.6825 6.34937
O 15.2833 22.4579 17.5713
O 20.0521 3.78941 2.79663
O 4.33618 22.2697 20.3671
O 12.0027 7.62082 12.6521
O 9.95307 16.4632 9.93136
O 14.1469 20.5603 13.361
O 7.82731 4.99001 10.7059
O 16.7764 20.286 14.3707
O 18.2545 5.1189 18.2083
O 14.7715 21.547 5.9237
O 5.87592 17.5562 12.8804
O 10.7644 8.47056 8.98055
O 11.5 2.82143 12.3636
O 13.5204 12.2707 20.4312
O 13.5854 18.5865 14.622
O 2.43714 19.4462 7.98208
O 21.872 15.5727 3.49695
O 11.1436 21.69 20.2544
Si 3.51644 5.35648 15.5514
Si 22.7292 19.5186 6.55389
Si 19.3684 3.4549 4.30297
Si 4.19278 13.4219 3.95056
Si 6.55476 5.59219 9.97637
Si 10.725 9.66704 7.90259
Si 14.2021 21.408 7.42591
Si 8.4123 8.54821 6.00464
Si 20.4652 22.5112 11.2659
Si 2.92045 4.23348 6.53721
Si 3.45674 22.9326 8.26862
Si 19.3515 4.32245 19.0844
Si 13.654 17.1482 6.14955
Si 22.6217 4.87218 22.1554
Si 11.5624 17.3022 17.5021
Si 18.605 20.5366 9.58287
Si 21.8252 11.5615 2.88553
Si 13.252 10.9508 19.3202
Si 6.05323 10.5584 13.4016
Si 3.58496 8.9329 6.41752
Si 2.30204 14.7739 19.2329
Si 21.4146 22.3637 6.56032
Si 10.8286 9.13277 18.6211
Si 19.1552 14.7282 10.3764
Si 6.667 20.6762 5.18154
Si 22.1093 16.1156 9.34324
Si 7.11475 22.3246 10.5797
Si 14.1006 15.2828 9.22966
Si 16.6643 13.4521 18.0529
Si 4.76459 21.9836 12.752
Si 11.7576 3.04683 4.4138
Si 6.00571 11.9441 18.7831
Si 16.9742 13.7694 2.92508
Si 16.6408 15.7601 5.13993
Si 2.17083 6.93726 12.5142
Si 10.7629 17.1643 6.76092
Si 11.2979 6.71308 11.5295
Si 15.5904 17.9966 4.13298
Si 3.59848 14.8402 14.5066
Si 22.2738 20.202 11.2015
Si 8.47132 4.12765 14.4868
Si 19.87 17.6208 22.7598
Si 3.19783 15.9989 17.2442
Si 11.4251 12.4734 7.50798
Si 18.9588 22.0431 4.88695
Si 4.53981 6.467 19.9869
Si 10.3165 4.19291 15.8365
Si 9.12253 18.9566 4.12141
Si 7.12617 22.2504 2.22601
Si 21.739 5.5818 18.0017
Si 15.7826 10.409 11.8943
Si 19.6025 10.0904 22.8838
Si 8.63707 7.95042 17.3279
Si 8.45762 18.2548 7.52471
Si 21.2546 15.3422 21.3247
Si 14.2556 13.6734 19.9957
Si 14.8254 5.39091 3.11099
Si 7.89126 3.83674 22.179
Si 12.1918 13.6834 10.9431
Si 16.1754 10.8277 6.41249
Si 17.0779 11.1663 3.74108
Si 7.34791 10.7013 21.0963
Si 5.50722 15.2637 9.09307
Si 7.01541 16.61 3.13475
Si 8.35696 13.6252 15.7421
Si 21.8163 7.23072 10.3903
Si 16.6149 3.7205 4.46812
Si 10.6488 20.0761 20.009
Si 4.53011 8.36537 14.8702
Si 4.04365 19.5148 3.67576
Si 21.2319 11.9298 16.7674
Si 12.4742 11.6065 21.796
Si 4.6192 18.8224 17.88
Si 3.39225 13.8454 10.5604
Si 4.88421 5.38715 12.3876
Si 6.94445 12.7564 4.41968
Si 18.5482 15.6323 19.8633
Si 15.0326 3.53804 10.7098
Si 15.2644 6.95075 12.1672
Si 12.1735 6.60145 20.3803
Si 6.62235 20.7539 14.2294
Si 13.9471 18.3813 16.2511
Si 6.68025 2.39534 5.62471
Si 23.0352 16.5508 3.28855
Si 5.95154 12.1929 11.5921
Si 6.71495 7.88952 2.31317
Si 3.85834 18.7861 10.4435
Si 22.7436 20.5757 20.6194
Si 4.33991 13.4646 21.1002
Si 13.8615 12.8861 2.40033
Si 15.2446 4.31511 15.9563
Si 9.53664 8.49264 20.5337
Si 2.27703 21.1949 22.8261
Si 10.4417 14.694 16.8615
Si 19.4752 20.1224 12.1617
Si 16.3001 18.6084 9.48543
Si 8.04024 13.871 22.944
Si 4.24902 9.84315 19.3258
Si 7.11547 20.7537 8.31235
Si 10.667 17.2003 21.4674
Si 9.73858 20.6802 15.1422
Si 18.6983 4.69327 14.5727
Si 15.4984 4.05627 7.95272
Si 15.365 17.9685 19.8095
Si 6.33722 19.1966 22.9335
Si 14.4055 4.59395 13.0284
Si 14.8669 6.28206 19.1995
Si 14.1564 20.0593 21.3845
Si 20.3823 16.1637 6.98816
Si 18.1207 13.5389 15.0818
Si 17.8168 6.55432 18.6417
Si 3.84913 7.47387 3.67765
Si 11.8565 15.5305 19.3839
Si 2.20676 7.82226 21.723
Si 7.18912 6.80425 13.3731
Si 13.0344 3.02994 1.94426
Si 20.99 3.42728 8.70321
Si 16.8341 5.60587 21.8043
Si 1.95241 20.7558 8.92022
Si 16.1668 20.7979 5.55874
Si 8.67289 4.51723 5.769
Si 8.6284 11.2932 6.63442
Si 2.10402 22.7825 12.0542
Si 2.22072 8.93155 2.75176
Si 14.8677 7.86911 21.3655
Si 14.4433 7.25498 16.4487
Si 12.6431 2.81654 7.43816
Si 14.2557 21.2106 17.0615
Si 13.4984 18.3978 8.24806
Si 6.89613 20.7549 21.3648
Si 10.2573 3.97146 12.6051
Si 14.5824 21.4854 12.1609
Si 10.7802 8.69278 4.85341
Si 16.2018 2.35278 13.8064
Si 20.7213 21.9553 21.3363
Si 7.42657 10.9309 2.75858
Si 7.15926 6.65594 21.0561
Si 5.58489 18.184 7.99238
Si 20.3405 14.7126 15.8532
Si 12.3531 6.01612 4.27869
Si 21.7668 14.0534 10.8535
Si 4.34562 17.1087 12.7245
Si 9.98569 13.2739 5.2145
Si 12.9618 9.02868 12.3758
Si 16.5416 2.26282 17.8473
Si 14.8044 22.0115 19.1784
Si 4.61245 22.8626 21.8727
Si 11.8788 18.6754 14.7535
Si 17.6974 19.316 13.3837
Si 22.0165 10.623 10.014
Si 13.0315 10.5504 4.39855
Si 18.8183 6.82721 21.8094
Si 2.97693 5.66386 18.0919
Si 8.03748 21.6433 18.9038
Si 3.55573 17.1539 5.60931
Si 17.2398 13.2217 20.5791
Si 15.0582 9.54551 15.0263
Si 12.0174 8.72257 21.7017
Si 10.2205 22.998 20.5412
Si 6.92901 13.9476 20.2501
Si 21.4974 6.5428 7.3621
Si 12.6978 12.5407 16.5392
Si 18.2586 18.4733 20.9594
Si 21.7225 9.2914 12.1937
Si 13.0677 10.8526 10.4583
Si 18.5138 9.44117 18.1159
Si 8.42813 17.6481 17.9012
Si 10.7643 20.7809 5.92739
Si 17.3471 8.21834 4.95078
Si 16.7123 8.88774 23.0323
Si 2.65164 6.1404 9.05237
Si 9.65478 21.5381 22.9304
Si 7.48712 8.3695 8.84443
Si 12.5054 21.637 3.50113
Si 5.45918 12.1985 16.32
Si 2.19394 18.865 16.6056
Si 8.71314 8.95846 14.7137
Si 21.1263 20.3335 17.2647
Si 10.1717 10.6093 13.0533
Si 21.4578 14.1358 4.12034
Si 13.2357 13.9385 14.0807
Si 17.9497 3.99921 12.0608
Si 10.0625 22.8272 10.8265
Si 5.03406 16.5698 20.0375
Si 16.1786 21.7352 9.86616
Si 11.3039 22.1861 8.74002
Si 8.95918 8.53626 11.6621
Si 12.7755 17.6949 10.8543
Si 3.61463 22.065 18.9936
Si 6.6851 16.4849 6.17193
Si 6.55499 13.8575 14.2424
Si 7.1845 3.1879 19.2029
Si 22.9678 8.32091 19.108
Si 12.3117 7.60962 8.83461
Si 7.01142 14.956 11.5988
Si 4.47889 4.67844 22.4362
Si 8.93378 22.8054 4.57024
Si 6.60418 13.7142 7.29426
Si 6.73434 19.664 11.3147
Si 2.64986 12.1563 15.1353
Si 3.13332 10.6525 4.52992
Si 13.7892 7.92121 3.06492
Si 15.6577 10.9591 22.1806
Si 21.3065 16.1478 13.4367
Si 6.09445 22.3588 17.1128
Si 22.9279 22.4691 15.1439
Si 22.0857 3.76602 15.5529
Si 23.0099 21.4308 4.22404
Si 22.5398 8.08707 5.62084
Si 16.3219 6.70962 14.5993
Si 15.9913 15.068 13.3786
Si 15.5315 15.9086 16.4385
Si 18.7516 10.4676 11.7336
Si 17.1481 18.3501 6.6571
Si 3.60879 14.7319 6.78596
Si 15.1579 20.1158 2.79346
Si 16.1068 13.2704 5.84058
Si 10.9074 5.28863 7.79153
Si 10.9164 19.5003 8.77206
Si 21.4584 16.7083 17.8436
Si 4.58716 14.4574 18.4262
Si 23.0644 3.21035 19.4903
Si 19.2256 5.30683 7.908
Si 10.774 20.0265 11.3341
Si 21.0006 8.4595 16.9559
Si 22.9343 11.9049 12.5919
Si 10.1855 15.0635 9.00572
Si 10.0072 13.7435 13.8782
Si 2.73571 11.0321 21.6739
Si 6.45324 2.91757 8.78895
Si 11.6576 21.4067 17.5311
Si 16.8882 11.6642 16.2597
Si 21.8589 12.0666 19.4491
Si 18.514 16.7865 12.0574
Si 16.7957 14.186 9.68998
Si 21.0097 3.97213 13.1311
Si 8.64374 22.6919 13.1676
Si 11.3751 7.65111 15.9641
Si 18.5309 16.1443 16.9629
Si 12.9432 3.21925 14.8397
Si 22.799 12.8343 6.42011
Si 4.37266 20.8477 15.4797
Si 4.14363 15.6135 1.92777
Si 20.3911 23.0083 18.7245
Si 17.0049 19.7925 18.5951
Si 4.06944 19.2902 20.8351
Si 10.2746 11.043 16.1013
Si 20.6451 8.85557 20.196
Si 5.84209 7.0865 5.68124
Si 5.56074 7.71758 17.5769
Si 19.6467 3.84521 22.2745
Si 10.9218 13.728 2.26308
Si 15.2411 6.238 5.58476
Si 19.7378 19.9978 6.69018
Si 19.9596 12.9766 12.9453
Si 3.63343 10.9644 8.9
Si 18.8104 20.5263 2.32155
Si 3.09175 17.7829 7.91142
Si 9.00943 13.9365 18.8708
Si 7.79945 5.45184 17.2693
Si 20.47 11.2453 7.68666
Si 15.626 17.2322 12.0375
Si 18.6021 13.6707 7.52867
Si 5.61698 11.1839 6.56374
Si 5.01176 4.67911 4.13951
Si 5.4185 3.37809 13.9614
Si 20.9448 18.8376 19.8908
Si 20.5236 7.86657 3.2112
Si 18.9999 10.4294 15.6421
Si 14.3371 23.0834 21.3909
Si 19.6686 8.50383 6.96874
Si 8.91564 4.21109 9.8751
Si 4.38837 9.31328 11.7674
Si 20.1633 12.7143 21.9489
Si 10.1053 15.7938 11.5291
Si 6.69487 17.8354 14.2353
Si 17.9523 8.40939 13.4898
Si 7.80673 13.1793 9.47525
Si 14.5918 6.0451 10.0256
Si 12.6378 10.3347 14.6948
Si 14.5845 16.0487 21.5048
Si 4.60375 2.11962 4.11051
Si 11.3587 3.23513 18.4359
Si 1.90617 4.50097 10.9279
Si 2.43434 4.44605 3.51479
Si 6.61124 10.0069 16.0141
Si 8.95859 17.6999 10.363
Si 19.6643 17.4321 9.66957
Si 18.5737 2.38187 9.32319
Si 20.7876 6.14606 15.6419
Si 10.7429 5.95632 17.7678
Si 15.2398 12.1857 13.5936
Si 18.2225 23.0654 15.8094
Si 9.74203 18.0804 13.4283
Si 15.4106 9.16634 18.6406
Si 13.9294 11.2772 7.48865
Si 5.96628 4.85666 7.09038
Si 10.496 9.7971 2.45755
Si 13.2236 21.3047 14.6711
Si 14.0616 3.93118 19.8455
Si 19.6214 18.4949 15.2626
Si 6.39715 15.9196 16.377
Si 10.7275 5.17098 22.7827
Si 21.2232 2.28986 2.65826
Si 4.6478 8.63223 9.28703
Si 2.10992 18.5343 13.5071
Si 9.86414 11.6545 20.3469
Si 12.6779 2.45031 11.2416
Si 13.1933 14.2235 6.35617
Si 19.8926 10.0569 4.78547
Si 21.5527 19.3639 2.89463
Si 7.70984 17.6514 21.0276
Si 8.06492 10.7383 10.7356
Si 19.0073 6.88602 11.3468
Si 17.1675 18.3682 16.2177
Si 16.948 22.9401 22.9931
Si 15.2312 19.5088 14.3637
Si 17.613 7.65244 9.02008
Si 20.2567 21.065 14.5833
Si 17.2645 16.574 23.0826
Si 4.05336 21.3869 5.79684
Si 21.4513 5.49735 4.5443
Si 19.655 15.853 4.31742
Si 17.6573 2.80758 20.8302
Si 10.1623 16.1024 3.95153
Si 9.25309 6.81627 3.67826
Si 11.1972 19.669 1.92189
Si 7.1584 19.9578 16.3844
Si 17.0201 11.0969 9.24584
Si 12.9358 18.061 2.28182
Si 22.6905 8.60411 14.9125
Si 17.8026 2.92787 6.91171
Si 13.8285 15.6453 3.94567
Si 11.8907 15.8613 13.2235
Si 5.23933 3.82843 17.3685
Si 14.6869 8.33314 7.81907
