1008
Lattice="21.0122 0.0 0.0 0.0 21.0122 0.0 0.0 0.0 21.0122"
O 10.2477 7.75116 10.579
O 20.5946 18.0762 13.6304
O 8.62778 17.3919 17.8153
O 20.0955 17.8019 6.99499
O 17.3466 21.0101 22.9697
O 14.6303 15.7452 19.5374
O 6.41293 22.0124 2.73109
O 10.3412 9.15339 22.4921
O 21.5493 15.0036 16.8362
O 2.67643 3.16559 13.0593
O 4.8669 11.0664 18.4523
O 18.4563 4.69686 3.05518
O 4.56472 2.98815 22.3452
O 16.8116 7.51079 11.0242
O 22.9436 6.64225 6.03954
O 13.3802 18.1873 19.2613
O 14.239 5.85414 20.2348
O 20.2502 8.18697 2.00878
O 8.54612 13.1159 9.9221
O 13.3265 15.0089 17.346
O 17.0102 11.3139 21.0983
O 17.7902 16.3455 18.4294
O 10.8523 15.0996 22.3102
O 22.6356 7.35501 18.8421
O 20.649 14.5889 21.8465
O 14.6143 18.7006 10.181
O 21.1912 11.5865 13.3137
O 19.0227 20.9569 17.3324
O 18.2317 4.68097 8.11916
O 14.793 20.5616 15.1767
O 8.59036 7.24945 2.11765
O 12.9621 10.0341 10.0044
O 2.48273 11.1623 14.1452
O 14.5885 10.1695 11.9114
O 12.5685 21.9572 8.06114
O 4.06085 9.07077 14.8394
O 19.1276 19.4688 2.94024
O 13.1609 12.178 11.6638
O 9.88662 7.09783 15.8479
O 22.6796 9.12037 15.3708
O 13.6935 5.90639 22.7538
O 2.78018 22.9292 20.7231
O 16.0927 15.4542 12.7016
O 11.26 3.23914 7.28621
O 15.1368 6.69217 8.90749
O 19.0224 3.26919 16.0758
O 10.5088 16.8954 15.7872
O 17.2449 16.5285 15.3707
O 6.08288 14.6413 16.1845
O 6.44848 21.8885 21.1736
O 8.15902 22.2857 4.33763
O 14.0526 5.68812 17.6027
O 21.0502 9.53706 11.106
O 14.0857 2.33492 6.65011
O 17.6127 10.3619 17.7284
O 19.2593 11.8034 19.8328
O 4.12547 17.7358 22.973
O 7.86576 21.8463 9.36941
O 13.7483 5.92096 14.2652
O 7.38672 19.3611 18.1264
O 10.026 14.7908 5.36527
O 16.7002 17.093 20.5001
O 22.7243 18.2778 19.6067
O 12.0908 9.74636 4.01914
O 22.6734 15.7933 11.0817
O 6.94984 6.8962 7.59318
O 13.8034 5.29681 10.7107
O 6.45244 17.5792 16.2563
O 3.8965 4.81257 10.6282
O 5.27512 22.0666 7.56754
O 10.6796 7.3691 12.9492
O 3.3784 8.40442 5.61586
O 12.623 7.1596 9.73005
O 15.4941 2.52823 4.64523
O 19.3577 14.8175 5.14273
O 18.4815 13.1576 17.9732
O 21.9943 17.49 15.3967
O 2.08271 11.4833 11.2446
O 11.2533 17.0786 12.5992
O 20.6276 19.4791 15.625
O 5.55605 13.8547 12.9097
O 6.01793 2.07337 17.2055
O 5.37925 20.5479 17.6259
O 9.7396 18.894 11.9688
O 21.057 4.3025 2.54064
O 11.9068 14.25 7.46639
O 8.14977 14.7217 13.0436
O 6.96477 20.8827 6.19665
O 8.95245 17.1493 13.818
O 16.9504 4.9596 10.0027
O 2.41975 4.81311 17.2756
O 22.3101 16.4393 22.5219
O 3.30709 18.588 16.6623
O 13.6307 15.7078 6.11502
O 22.6097 2.57548 16.3873
O 4.46676 18.3063 18.8273
O 20.3569 14.5362 18.9405
O 18.3095 6.32807 19.587
O 5.12667 3.35644 19.4625
O 13.96 20.5661 6.34017
O 3.61886 13.6544 10.8636
O 4.85093 10.1675 2.01642
O 9.11403 3.06699 3.2256
O 22.8301 15.0473 19.0997
O 2.66697 16.2614 4.13758
O 7.69578 8.01037 9.56174
O 19.4663 9.41369 4.02084
O 5.98306 16.2164 5.70994
O 16.9389 17.895 10.3192
O 13.6404 3.07687 18.2228
O 22.267 9.62735 17.6901
O 16.2025 8.92969 6.79055
O 7.42072 17.3587 19.9311
O 18.4227 12.8494 22.0742
O 21.2172 2.63239 20.9246
O 17.2922 17.9256 3.84598
O 10.536 12.76 17.5763
O 9.91339 16.2236 3.29142
O 22.58 21.8248 11.5226
O 20.6079 2.64916 17.8551
O 15.4174 4.33437 6.72779
O 9.07293 8.73741 7.29068
O 20.9511 6.0548 7.27473
O 16.6627 9.30199 12.5578
O 21.4591 5.17962 20.6801
O 8.6305 12.5854 18.8026
O 9.43092 10.5075 18.1398
O 15.976 14.4987 17.7114
O 6.52743 13.582 18.131
O 4.23662 9.37855 12.15
O 15.9565 21.7527 10.9148
O 21.0435 14.3229 7.34576
O 12.5152 8.06044 14.3363
O 4.23595 10.8228 9.94316
O 6.32688 7.32719 21.7268
O 2.51027 9.12357 10.3049
O 12.9421 12.5129 17.5779
O 19.6719 2.35972 2.04069
O 14.0124 7.63749 15.9777
O 5.57711 7.41161 5.31816
O 4.2565 6.6146 7.36295
O 21.3737 18.7616 4.83967
O 20.691 22.0212 8.10971
O 4.63221 20.3171 14.9439
O 21.4938 4.53939 5.31647
O 22.2351 9.14999 13.0528
O 19.1138 6.60164 16.8818
O 22.8269 10.0791 4.97259
O 17.6651 7.90679 18.1348
O 11.1653 4.03904 16.8313
O 5.88901 6.86402 12.5134
O 8.0657 22.9396 14.0484
O 19.7667 6.694 4.2132
O 16.4157 2.94889 8.70617
O 7.47976 10.0772 4.37219
O 3.55589 20.0627 8.16294
O 5.68634 16.2267 21.5998
O 20.1601 21.0517 22.1804
O 20.478 12.9609 14.9382
O 12.0179 6.22042 16.003
O 11.0739 9.24322 19.6451
O 18.7985 2.31506 8.69172
O 10.1111 22.1758 6.03848
O 16.0843 22.3777 20.7784
O 12.2531 10.239 6.4282
O 10.0442 2.83216 12.8689
O 4.57706 22.9546 12.4852
O 11.3692 14.5243 18.7371
O 8.90337 6.57564 5.72975
O 6.04475 19.7368 20.0863
O 4.61701 14.9706 19.2571
O 22.8501 13.9571 2.69002
O 3.67647 21.503 10.0865
O 16.0572 7.67563 19.7679
O 11.2545 21.2126 20.5324
O 9.10467 4.54175 7.33078
O 16.6462 13.4443 14.3156
O 10.4238 5.09986 14.395
O 9.79039 17.6589 5.42232
O 7.68945 6.20089 14.4868
O 8.25733 8.92759 16.3453
O 6.1209 16.0058 14.1793
O 11.9285 8.3104 17.1924
O 13.9815 8.95626 5.16788
O 8.00241 11.3578 6.25279
O 17.1953 21.3555 19.0318
O 4.51483 14.9431 8.88551
O 4.28458 5.23555 22.7509
O 2.09897 11.5286 21.492
O 21.4798 3.2527 14.3861
O 20.8728 5.46401 10.0089
O 14.3145 9.94056 2.79245
O 9.98063 20.3133 22.4335
O 22.2099 3.50699 19.0034
O 21.4016 10.2537 2.96944
O 4.16366 8.28077 19.1553
O 4.15486 20.9089 5.78658
O 21.203 19.6169 18.2217
O 4.37362 11.0716 20.8199
O 5.9525 2.49318 5.60946
O 8.29689 6.49561 12.0646
O 14.1495 16.5595 3.7436
O 9.5307 13.7792 7.65005
O 10.8733 5.17386 5.41468
O 12.1289 17.2965 4.74945
O 12.5418 17.2452 10.5385
O 11.8923 5.1153 3.13418
O 7.04561 4.77977 17.9505
O 3.80715 16.5766 10.4614
O 3.15892 11.3892 16.5374
O 18.8897 12.349 5.76492
O 4.29927 22.8301 14.8539
O 4.58963 16.0164 16.9013
O 6.90739 14.6635 10.8823
O 13.1975 11.9853 5.07748
O 15.8661 11.9547 16.6009
O 14.2984 20.5189 8.64706
O 12.2487 10.3819 13.273
O 16.9225 6.88343 7.39571
O 8.6982 20.2836 13.6952
O 19.5875 11.5246 10.8869
O 7.80171 5.71601 19.9755
O 14.1616 19.6101 17.4802
O 14.959 19.8562 12.5409
O 6.29477 7.41203 18.7986
O 6.99453 3.36362 2.61655
O 21.3946 21.6811 16.4542
O 14.4802 3.46075 13.5418
O 16.9725 11.0078 7.86133
O 9.45124 11.1589 15.8144
O 3.94243 3.79324 8.301
O 18.9744 5.29618 21.6751
O 9.46382 10.8646 21.038
O 12.2203 17.0638 2.30622
O 10.7015 9.20501 14.9105
O 7.33985 4.59317 5.0597
O 3.28456 11.9567 5.69464
O 21.7443 8.48979 6.8209
O 16.2361 12.5564 5.95901
O 2.0175 21.3244 4.70486
O 6.21196 21.1614 13.4723
O 15.2286 9.621 17.1391
O 17.3424 2.86954 6.20834
O 20.8657 19.0814 20.9318
O 8.63642 16.3601 6.89658
O 14.1188 22.6964 16.1556
O 13.9854 15.1443 22.5608
O 21.4086 16.3158 8.99208
O 21.2988 16.7234 20.4798
O 17.2379 2.56162 10.7083
O 18.3674 5.94666 11.8964
O 7.90447 2.04887 7.08284
O 9.02162 19.1384 7.25903
O 16.5918 3.29855 19.7891
O 13.6617 12.7704 2.38572
O 10.0268 11.3678 8.57599
O 3.83303 16.3914 6.61859
O 4.89373 4.22725 16.9172
O 15.1266 18.4217 7.87582
O 14.4377 22.7778 9.03031
O 10.7861 12.391 6.29759
O 13.8411 14.3937 9.12059
O 21.9837 20.3246 6.65742
O 19.7802 12.3798 8.24533
O 11.3893 2.77659 4.21864
O 10.6882 21.2266 12.3353
O 10.3271 18.2434 9.31568
O 15.6175 9.98549 19.5148
O 16.2773 16.4449 8.25268
O 14.9586 7.49062 3.3408
O 11.9707 3.25445 14.3196
O 7.52765 19.83 11.7155
O 7.7879 4.28235 13.0532
O 3.72643 6.29056 4.31038
O 4.21797 17.7687 12.3684
O 13.0166 22.7669 20.3681
O 20.9054 9.63346 20.9663
O 9.13647 20.1502 4.99846
O 5.47563 5.82832 15.1327
O 11.4353 15.6564 9.52378
O 17.9507 21.2084 9.32106
O 8.67074 22.2543 22.7144
O 19.4459 3.02239 4.55544
O 19.4983 4.05569 19.4381
O 22.8615 13.4737 12.8173
O 4.17263 13.4799 17.4319
O 19.9423 17.3222 22.8013
O 15.3565 17.5145 5.62454
O 20.098 16.1149 11.5834
O 5.41366 13.7519 6.01789
O 14.5292 10.5226 21.4139
O 8.49585 10.6405 10.6856
O 12.4347 20.663 15.9932
O 16.7848 6.36135 16.4184
O 18.9891 22.261 11.6705
O 2.22056 6.35651 2.3898
O 10.4052 5.08071 11.8753
O 8.26539 19.0165 15.6441
O 19.3696 18.1829 19.2271
O 17.8297 13.6765 11.7165
O 20.9077 10.417 15.3275
O 20.6801 12.0156 22.7894
O 4.89694 17.4726 8.29685
O 16.6469 3.61835 14.7524
O 3.33402 2.32306 6.10989
O 2.83836 10.2709 7.5084
O 22.545 5.44667 13.838
O 18.336 16.0349 2.8129
O 19.1853 9.76821 13.788
O 6.79533 9.18697 6.57838
O 21.4642 18.0209 10.8863
O 22.2746 3.99634 7.75922
O 20.7295 6.14107 18.7305
O 16.6866 14.3465 22.6687
O 21.7031 14.8565 14.174
O 3.55649 2.01495 17.7385
O 4.85935 5.95976 20.029
O 3.05337 4.51177 20.3743
O 21.8011 8.0569 4.21736
O 13.1696 10.0922 15.9024
O 8.33217 21.9241 11.8344
O 15.11 18.0641 14.8629
O 13.774 16.1645 15.1959
O 20.4556 21.3866 4.2389
O 21.3548 15.7117 3.68984
O 15.7989 2.02868 2.18817
O 3.08794 20.0477 18.8516
O 21.9844 19.6474 12.7103
O 15.3523 12.9071 21.3214
O 17.7697 8.57746 15.609
O 7.84272 18.9239 9.29738
O 14.898 16.2462 10.2676
O 20.3741 14.402 9.54172
O 4.47312 8.53869 8.83623
O 19.0028 18.1735 16.7166
O 9.16675 5.44871 3.67896
O 2.87288 18.9345 5.16606
O 4.27165 7.30413 10.6891
O 17.3154 14.3467 19.837
O 20.7409 2.92445 12.0967
O 6.83733 9.10003 2.24726
O 14.8356 4.3614 3.02787
O 2.38549 17.4839 8.34838
O 11.4033 12.3729 3.8817
O 13.1199 21.3998 10.6036
O 16.6703 10.4388 14.4726
O 13.3771 2.41505 3.01733
O 8.82812 13.5879 2.47305
O 7.7461 8.989 11.9749
O 19.9848 3.3244 6.85534
O 11.2809 17.3091 18.2269
O 6.8887 15.7853 18.0265
O 7.57958 21.545 16.1161
O 12.6899 18.0447 16.2627
O 21.0984 7.79264 9.06038
O 2.03748 14.4882 5.8601
O 17.3412 11.5653 10.373
O 3.35812 8.36114 17.136
O 18.8938 16.0497 20.9467
O 19.0162 3.96804 10.5765
O 2.19765 22.9067 8.39031
O 12.5077 19.0743 8.76003
O 2.66083 12.1927 19.0037
O 10.889 13.2702 9.6049
O 13.1441 18.7589 13.5736
O 18.3774 21.6271 6.79914
O 16.8432 9.19308 2.59816
O 9.90162 9.93125 12.7707
O 16.5133 15.0016 6.20522
O 11.5741 22.5958 17.3905
O 8.71304 4.67662 22.2546
O 22.2029 16.7584 6.39167
O 5.97049 16.4761 12.0965
O 11.6497 14.3597 15.9045
O 18.4289 5.54465 14.6147
O 15.5153 14.0521 11.0328
O 5.76087 20.0054 22.7273
O 10.0656 21.4132 15.4861
O 7.85326 16.0795 4.45099
O 5.83193 8.88725 16.9008
O 3.03851 16.528 20.6652
O 9.43609 3.28335 5.56596
O 13.5821 19.0789 4.09787
O 17.7392 18.5316 22.4078
O 6.54581 12.041 20.3218
O 7.23202 6.69774 16.731
O 14.6199 13.7502 12.9818
O 2.76856 4.61374 6.3187
O 2.91183 13.8494 20.868
O 16.1314 16.8689 22.8347
O 10.3668 2.56704 21.4465
O 15.4905 8.3595 21.9193
O 19.8501 9.09913 17.2312
O 16.1919 5.57883 18.6331
O 12.0961 8.82782 11.7004
O 22.0379 20.5029 2.53673
O 6.83756 5.63345 2.59192
O 15.8137 3.32793 17.2478
O 14.2519 21.2958 22.3468
O 5.86841 19.9097 8.4061
O 5.05356 11.6603 14.7038
O 16.208 6.08225 22.5407
O 13.0898 5.07166 7.74412
O 11.2197 19.664 6.18882
O 12.9094 8.25307 2.06923
O 22.0532 12.074 6.90853
O 14.5156 11.4973 14.2879
O 3.37246 15.4136 13.0018
O 17.5712 18.8064 7.84296
O 19.9365 16.4309 15.3495
O 20.646 7.49956 13.8502
O 2.94143 2.5426 10.6928
O 10.3825 21.8055 3.56504
O 12.6533 3.23217 9.61519
O 4.73167 6.33834 17.3198
O 9.74555 21.3117 17.9606
O 4.01832 7.97417 21.7089
O 14.6062 6.65746 6.26786
O 10.135 10.2636 5.22618
O 12.5262 7.34273 3.97436
O 9.41569 7.54589 20.7774
O 11.295 2.88587 19.1252
O 20.9899 13.0036 4.80058
O 6.16155 4.49408 21.4604
O 9.86801 20.8893 8.16052
O 19.6606 14.0858 2.93035
O 20.3304 5.16741 12.9241
O 15.8906 21.349 17.0528
O 20.5554 20.0752 10.8314
O 13.4036 8.68061 20.5928
O 19.0538 10.2057 22.2586
O 18.8123 11.6919 15.7677
O 9.06126 12.328 12.0984
O 3.54995 20.774 12.8685
O 13.1709 14.9284 11.4325
O 4.08363 21.6193 22.4461
O 18.432 22.9626 20.9676
O 21.0748 17.0448 18.1472
O 16.913 20.3329 13.9259
O 8.93529 14.8338 18.1934
O 14.074 17.0637 12.3766
O 18.021 2.25046 18.2167
O 15.0284 16.8532 17.2336
O 3.84583 5.09423 12.7215
O 16.2877 11.8284 2.38148
O 3.08416 8.51668 3.22441
O 18.6789 14.3599 15.9345
O 5.28975 7.59031 2.82741
O 18.3 20.1051 20.8744
O 14.7121 10.8338 6.668
O 16.3003 13.9135 8.51488
O 18.5624 9.30915 20.0669
O 9.70944 17.7701 22.4741
O 7.93654 19.18 21.5428
O 22.8353 9.18547 22.5585
O 8.42565 13.2135 16.4245
O 6.20259 8.51532 13.9182
O 10.4084 19.417 16.5978
O 21.8109 2.13119 6.33554
O 4.45966 21.4501 19.8581
O 17.091 3.88645 22.1699
O 2.69962 20.9689 16.4638
O 2.81116 11.1102 2.80785
O 10.9288 19.2081 3.47716
O 11.0179 18.4998 20.6818
O 6.93641 12.3824 8.23544
O 17.6102 17.2387 6.09657
O 18.6141 9.14465 10.5451
O 18.9164 18.2674 11.8715
O 6.20046 4.94106 11.1194
O 9.08229 21.7081 20.3693
O 12.4001 16.4451 20.4932
O 10.1811 6.75447 8.1596
O 7.11748 9.96906 18.9129
O 22.6403 20.8638 20.9021
O 5.85415 20.2232 4.23417
O 10.3044 15.0226 13.9654
O 18.1906 7.62064 13.5897
O 4.15023 22.3188 3.73159
O 18.5152 6.82054 9.49058
O 12.5291 4.53725 12.6275
O 2.50621 16.9338 17.6978
O 5.22021 10.9626 7.39587
O 19.6699 10.0457 8.49947
O 16.1606 22.5158 13.2056
O 16.6781 4.32126 12.4957
O 16.0345 10.6362 4.65195
O 10.983 19.3793 14.3467
O 21.5483 18.9187 8.61174
O 6.52203 17.0146 9.82868
O 5.08593 4.22383 3.70806
O 6.36125 4.28105 8.12938
O 14.9909 11.9648 9.39572
O 12.5342 14.6073 3.60048
O 4.21203 12.7392 22.7419
O 19.6678 20.0949 8.1539
O 9.64119 12.9136 14.2717
O 15.4607 19.4836 22.9617
O 5.9083 9.63097 10.5356
O 14.7696 13.3758 4.4824
O 2.01252 22.6739 2.38892
O 5.58284 3.77356 13.8077
O 5.21718 5.89333 9.18389
O 21.6096 2.42097 3.9285
O 11.0662 22.2438 10.0713
O 16.2811 11.9367 12.5042
O 13.3235 4.62273 5.17782
O 2.41816 15.7484 15.357
O 11.6659 20.2023 18.4206
O 22.2147 7.12875 11.3767
O 4.00737 19.5554 21.2661
O 11.1927 17.2987 7.37968
O 13.8106 4.30618 15.7732
O 12.9008 21.2612 13.3312
O 20.4561 10.485 6.20375
O 2.96709 6.606 15.6034
O 9.03592 7.07607 18.4146
O 12.9232 19.3341 22.7828
O 2.60317 19.3238 10.4999
O 14.4286 17.8478 21.5198
O 18.3329 18.3633 14.4027
O 8.14484 3.19609 11.1468
O 21.6584 10.8143 9.19383
O 10.183 5.02711 19.9115
O 5.41606 11.6702 4.22326
O 8.51681 8.23362 14.2372
O 17.9777 9.87479 5.9157
O 9.55993 2.47484 8.70655
O 16.8243 19.2571 16.0644
O 5.17848 5.09467 6.13956
O 12.3125 11.8784 8.28764
O 8.25926 15.8737 22.2315
O 20.5932 12.3875 17.4874
O 13.9699 7.84866 18.4278
O 22.6664 7.31455 21.2273
O 3.51904 7.29872 13.4933
O 12.427 19.3887 11.3817
O 6.91494 11.6676 2.44282
O 11.1197 9.10866 8.74826
O 10.078 8.08597 3.99004
O 22.3368 4.40548 11.5493
O 16.3792 19.7753 5.99336
O 8.3004 15.5416 15.7892
O 7.91131 14.2024 6.18431
O 9.62844 16.4817 20.0271
O 22.6152 13.4952 9.46071
O 8.9174 2.95787 18.2182
O 19.1512 11.6373 3.67207
O 13.1662 18.2736 6.40932
O 5.38623 2.73994 10.022
O 17.169 18.8893 18.6167
O 12.1727 10.5698 22.0998
O 7.39051 11.1965 16.7744
O 5.99214 12.4252 10.3833
O 6.85297 17.7773 7.31918
O 18.5739 3.06524 13.4631
O 5.77447 21.4861 10.8409
O 16.3081 15.4952 4.0008
O 8.97586 15.5714 9.19876
O 9.95669 14.6728 11.4525
O 12.26 4.38262 21.1326
O 11.0491 6.67861 22.4507
O 19.8427 7.56277 11.7677
O 2.19263 9.61674 19.9073
O 9.15646 19.4108 19.7526
O 14.0388 11.9759 19.5829
O 5.68178 15.8837 3.15722
O 7.42358 18.4383 5.1268
O 8.22862 10.7188 14.0952
O 9.41179 20.54 10.2861
O 9.97926 13.7059 20.4978
O 20.2567 22.2788 14.2608
O 3.92968 13.7805 4.04457
O 5.346 9.38901 4.29734
O 22.9334 18.7366 22.1464
O 21.2916 2.87235 9.56889
O 16.4521 5.61856 4.00434
O 9.22008 2.65137 16.1111
O 21.5172 7.46656 16.5079
O 14.4415 13.683 15.6451
O 13.065 9.91764 18.3967
O 2.36368 19.3359 14.5352
O 5.0815 17.8671 4.35603
O 7.48423 14.619 20.1953
O 9.50111 10.9627 2.92394
O 6.60998 11.1451 12.3463
O 11.7486 22.1182 22.5666
O 11.4353 7.96869 6.28766
O 12.6588 14.3637 13.9415
O 15.9413 9.51445 9.79937
O 18.0198 4.56155 17.7
O 5.77292 9.23148 20.7852
O 19.1659 7.86051 6.97738
O 5.15408 18.8932 10.2831
O 18.6852 15.4879 13.4027
O 15.8219 22.0377 6.85079
O 20.2085 13.8373 12.3069
O 6.87777 17.8584 2.65918
O 9.14656 5.00731 16.7425
O 11.6267 6.9515 19.2413
O 6.83351 13.758 3.96237
O 18.7346 11.9407 13.1943
O 2.41005 15.1415 8.36615
O 17.9066 7.87744 21.549
O 14.6867 3.65621 21.5491
O 7.09537 14.8431 8.54272
O 2.59174 4.06012 3.51924
O 3.78693 19.8905 3.1251
O 17.5483 13.5006 4.08034
O 19.1809 19.4769 5.50621
O 12.6134 2.32368 11.7791
O 2.30419 6.5037 9.05362
O 6.38988 18.5287 13.6245
O 3.49108 4.36867 14.9409
O 13.4176 20.1831 20.4765
O 18.0292 15.7962 10.6904
O 15.8814 7.03638 14.3399
O 7.2929 9.96851 8.61849
O 7.70331 3.01744 20.5378
O 4.36909 17.2096 14.9355
O 17.8389 6.84162 2.61065
O 22.6867 21.9316 14.1927
O 8.54743 5.28705 9.94758
O 7.1152 4.18077 15.7932
O 15.1799 21.0315 3.82704
O 9.12649 12.5072 4.55741
O 10.9809 11.0558 10.6509
O 14.1592 13.5058 6.93213
O 22.6011 22.1328 18.6954
O 22.8886 17.3196 12.9653
O 6.51623 13.9647 22.3342
O 18.365 5.17399 5.5874
O 19.5842 17.1192 4.26048
O 7.04694 12.7738 14.3179
O 22.2865 20.9089 9.37068
O 19.2062 17.6824 9.34082
O 18.4997 14.899 7.8621
O 20.2636 7.33366 20.59
O 15.8165 19.5127 20.7035
O 8.09857 19.9528 3.00806
O 11.3056 13.2307 12.7466
O 12.6873 21.4576 4.25576
O 3.59056 12.5779 8.41153
O 14.7556 9.06435 13.9517
O 12.0452 12.1664 14.881
O 21.418 12.7691 20.0574
O 10.6911 12.4764 22.5543
O 11.4114 11.5296 19.6502
O 4.35267 11.8497 12.3474
O 20.2513 21.9952 19.7503
O 7.47615 7.62209 4.06395
O 3.11537 13.4183 14.8714
O 12.6133 13.4997 21.2827
O 17.5895 7.56124 4.93577
O 17.5027 21.9276 15.7772
O 2.04501 3.65212 22.2698
O 7.20597 21.8521 18.8441
O 14.4826 7.73026 11.3873
O 13.2103 16.588 8.53242
O 17.5121 20.3698 11.7624
O 10.9416 4.81098 9.24021
O 19.5411 20.116 13.0847
O 20.9682 4.76443 16.7589
O 17.7674 21.3271 4.53394
O 8.59528 16.7811 11.246
O 13.961 8.52674 7.74029
O 14.8342 3.22848 11.0877
O 16.2582 12.216 18.8768
O 16.456 18.1405 13.0693
O 5.01058 18.925 6.41903
O 3.54896 15.3307 22.9886
O 13.6202 21.5951 18.3291
Si 6.75778 4.84969 14.2823
Si 4.49448 19.3628 4.8668
Si 22.3988 3.35463 2.75132
Si 7.26319 13.2177 2.51802
Si 9.55292 5.31345 8.72233
Si 13.7432 9.59552 6.61399
Si 16.9812 21.2828 6.02935
Si 11.4268 8.47834 4.7488
Si 2.13985 22.2283 9.91615
Si 5.79983 4.03531 5.13933
Si 6.54848 22.3862 6.62882
Si 22.1151 3.80369 17.3751
Si 16.6843 16.8683 4.87379
Si 4.65233 4.49119 20.6078
Si 14.1701 17.4385 16.0152
Si 21.3392 20.5241 8.05138
Si 3.74777 11.2698 22.38
Si 16.1644 10.8878 17.83
Si 8.4217 10.6079 12.3748
Si 6.63657 8.68971 5.05658
Si 5.26759 14.6811 17.8002
Si 3.40313 22.1424 5.13284
Si 13.7138 8.95725 16.9762
Si 21.8332 14.7121 8.80996
Si 9.74195 20.2714 3.30754
Si 3.62788 16.3512 8.53997
Si 9.54768 22.0033 9.36759
Si 16.9752 15.1099 7.73031
Si 19.5057 13.0046 16.3665
Si 7.33699 21.1401 10.7318
Si 14.8602 2.8404 3.23309
Si 9.00266 11.8838 17.3393
Si 19.9376 13.3609 22.514
Si 19.7109 15.5848 3.71426
Si 4.92395 5.94201 11.485
Si 13.7831 17.2061 5.2393
Si 14.0766 6.71818 10.1512
Si 18.5494 17.7798 2.74704
Si 6.59755 15.0468 12.6603
Si 3.99431 19.9017 9.71733
Si 11.0106 4.07787 13.1532
Si 22.6425 17.3537 21.1664
Si 5.75551 16.268 15.7198
Si 14.6012 12.3794 5.9325
Si 21.9291 21.8232 3.5082
Si 7.58683 6.39881 18.4678
Si 13.2561 4.28313 14.1053
Si 12.296 18.407 3.23043
Si 10.1288 21.9135 21.845
Si 3.65521 5.26003 16.4064
Si 19.8481 10.1291 10.0729
Si 22.4518 9.9713 21.2655
Si 11.4625 7.80393 15.6356
Si 11.4211 18.0258 5.98367
Si 3.19721 15.1568 19.9351
Si 17.0694 13.5231 18.4218
Si 17.7044 5.30465 22.788
Si 10.9497 3.6942 20.4751
Si 15.1337 13.5182 9.51402
Si 19.1655 10.7179 5.14292
Si 19.9668 10.7463 2.52793
Si 10.0665 10.4686 19.5853
Si 8.39184 14.9809 7.60487
Si 9.76098 16.2014 22.7567
Si 11.2486 13.5456 14.4066
Si 3.90497 7.01733 8.96501
Si 19.6757 3.58104 3.02825
Si 13.2446 19.8186 18.8116
Si 7.37599 7.66889 13.0356
Si 7.1114 19.2134 22.8992
Si 3.5207 11.8494 15.0959
Si 15.4592 11.5501 20.3103
Si 7.68481 18.3352 16.9469
Si 6.95467 13.4221 9.51657
Si 7.84506 4.817 11.3725
Si 9.96849 12.5598 3.08488
Si 21.5186 15.4789 18.3518
Si 17.8185 3.49309 9.26949
Si 18.4217 7.49402 10.9524
Si 14.8144 6.47922 18.879
Si 9.28149 20.4516 12.0128
Si 16.7315 18.0742 14.8614
Si 9.80414 2.02997 4.50132
Si 4.73842 16.3178 22.8926
Si 9.6354 11.927 10.3908
Si 9.88689 7.71615 22.2135
Si 6.31713 18.4119 8.88959
Si 4.80135 19.9223 18.9693
Si 7.23748 13.184 19.4611
Si 16.7749 12.7489 22.1813
Si 18.2642 3.86914 14.8243
Si 12.3751 8.39908 18.938
Si 5.20238 20.8157 21.3143
Si 13.2408 14.7238 15.454
Si 22.0084 19.4694 10.2505
Si 19.1105 18.5963 8.05345
Si 11.0815 13.7292 21.6357
Si 7.11165 9.78702 17.3544
Si 9.9266 20.6042 6.45704
Si 13.8642 16.956 20.2597
Si 12.5569 20.0267 14.4113
Si 21.7071 4.24618 13.1138
Si 18.5169 3.90045 6.59285
Si 18.2331 17.8812 18.1345
Si 9.68188 18.984 21.4369
Si 17.7712 4.5834 11.4034
Si 17.7666 6.23364 17.7926
Si 17.0942 19.9086 19.7837
Si 2.48982 16.0743 5.72384
Si 21.2659 13.3109 13.4177
Si 20.6641 6.29032 17.1036
Si 6.98076 7.34889 2.4252
Si 14.7755 15.451 17.9634
Si 5.32012 7.59111 20.3076
Si 9.88015 6.67901 11.776
Si 15.9954 2.7741 21.6655
Si 2.76518 3.17163 7.35921
Si 19.7394 5.5243 20.2417
Si 4.8926 20.5074 7.20198
Si 19.0803 20.5076 4.29725
Si 11.8998 4.30362 4.53951
Si 11.5787 11.2093 5.31365
Si 4.58096 22.6181 10.8869
Si 5.36851 8.72744 22.4629
Si 17.6708 7.86714 19.8561
Si 17.3695 6.93226 15.016
Si 15.676 2.73337 6.26179
Si 16.4234 20.6916 15.4924
Si 16.4587 18.3507 6.80191
Si 10.1314 20.6723 19.4162
Si 13.3004 3.83872 11.2663
Si 17.7109 21.765 10.7931
Si 13.7103 8.5553 3.64271
Si 19.7106 2.05847 12.865
Si 2.72804 21.4396 19.8112
Si 10.469 10.7444 22.2969
Si 10.0751 6.61301 19.5872
Si 8.35284 17.9149 6.40543
Si 2.4327 14.6314 14.0722
Si 15.2539 5.89614 2.9017
Si 3.28444 13.9072 9.19306
Si 7.68966 15.9125 10.1599
Si 13.0776 13.0698 3.83433
Si 15.7496 8.77776 11.2848
Si 19.2013 3.43412 17.8232
Si 17.6049 21.7814 17.3849
Si 7.66893 22.4789 20.2307
Si 14.8666 18.39 13.2278
Si 20.4077 19.0926 12.2014
Si 3.99372 11.039 8.34139
Si 15.8994 10.3986 3.04128
Si 21.7011 6.75396 20.0325
Si 6.1098 5.37599 16.6291
Si 11.0742 20.9767 16.9416
Si 6.50606 17.1051 4.06993
Si 20.1666 12.8556 18.9513
Si 17.6627 9.17082 13.9243
Si 15.0041 8.851 20.4711
Si 12.6542 22.925 18.7663
Si 9.92033 13.7155 18.8865
Si 3.67701 6.00472 5.95961
Si 15.5376 12.6317 15.1636
Si 21.0146 18.3026 19.3254
Si 4.14871 9.06798 10.429
Si 16.3258 10.9678 9.32273
Si 21.2984 9.1635 16.4162
Si 11.1344 17.9891 16.7573
Si 13.9895 20.5194 4.73886
Si 20.2331 8.05921 3.57609
Si 19.65 8.64336 21.4973
Si 5.84058 5.72559 7.50354
Si 12.7182 21.5017 21.3124
Si 10.4757 8.15952 7.53736
Si 15.6689 21.1561 2.26706
Si 8.31997 12.2079 15.0363
Si 5.2971 17.2693 13.5265
Si 11.2649 8.99099 13.1895
Si 3.35467 19.8028 15.638
Si 12.9617 10.517 11.581
Si 3.43655 13.7843 2.51088
Si 16.319 13.7114 12.6528
Si 20.7732 3.97416 10.7107
Si 12.7114 22.6096 9.54466
Si 8.27442 16.2738 18.9787
Si 19.0229 21.7154 8.2014
Si 14.2647 21.8906 7.53388
Si 11.6696 8.38542 10.144
Si 15.63 17.575 9.42506
Si 6.60028 21.5032 17.3979
Si 9.46587 16.2003 4.82174
Si 9.60774 13.783 12.7793
Si 10.4403 2.77325 17.5535
Si 4.8998 7.93594 17.7935
Si 15.3553 7.56896 7.4576
Si 10.1403 14.7401 9.88484
Si 7.69002 4.55686 21.0021
Si 12.0493 22.564 3.25838
Si 9.41001 13.3843 5.94656
Si 9.28379 19.4211 8.95607
Si 5.76182 12.2912 13.3788
Si 6.15109 10.4602 3.29006
Si 16.7376 7.79564 22.8462
Si 18.5442 10.8573 20.7907
Si 2.89266 16.5637 11.9393
Si 8.74856 22.3228 15.3487
Si 4.65849 21.4815 13.7856
Si 4.09045 3.13903 13.9539
Si 5.02767 21.1939 2.86167
Si 4.3734 7.90744 4.24916
Si 19.393 6.5149 13.1337
Si 18.9486 14.9288 11.9038
Si 18.5539 15.5976 15.0048
Si 22.401 10.2693 10.5233
Si 20.0226 18.1163 5.43846
Si 6.60092 14.6902 5.30654
Si 18.619 19.9926 22.4325
Si 19.223 13.2081 4.3673
Si 14.115 5.20649 6.48762
Si 13.7058 19.3526 7.55333
Si 3.26305 16.9162 16.2636
Si 7.60992 14.5927 17.0009
Si 4.90914 2.91859 17.8673
Si 22.1819 5.28005 6.60284
Si 13.3911 19.8692 10.043
Si 2.97269 8.23088 15.6004
Si 5.38177 11.1957 11.1341
Si 13.3321 14.7955 7.48113
Si 13.0128 13.6379 12.4304
Si 5.66437 10.6718 19.8783
Si 9.48259 2.78741 7.1275
Si 14.1789 21.1157 16.6762
Si 19.682 11.2944 14.3946
Si 3.70871 12.037 17.8733
Si 21.3075 16.5013 10.636
Si 19.6696 13.9037 8.18746
Si 2.89292 3.94838 11.5966
Si 12.1774 21.8004 11.9753
Si 14.2326 7.60448 14.3201
Si 21.5773 15.9269 15.4686
Si 16.0087 3.13533 13.4207
Si 4.52408 12.7549 5.11727
Si 7.16058 19.9034 13.3746
Si 6.95066 15.3139 21.5543
Si 2.17863 22.2403 17.1433
Si 20.5028 20.4079 17.0254
Si 7.47044 18.9589 19.8376
Si 13.0005 10.9518 14.5873
Si 2.49593 8.72254 18.5351
Si 8.98337 6.97082 4.1684
Si 8.32004 7.32821 15.6616
Si 22.5686 3.86599 20.7053
Si 14.0322 13.6023 21.9543
Si 18.1096 6.06783 4.22592
Si 22.5374 19.8071 5.19349
Si 2.986 12.6122 11.92
Si 6.88346 10.9816 7.37425
Si 21.6866 20.0517 21.9087
Si 5.21283 17.3252 6.62402
Si 12.0461 13.8584 17.447
Si 10.5476 5.33226 15.956
Si 2.14884 10.9926 6.25516
Si 18.3752 17.3193 10.7017
Si 21.7983 13.5095 6.07353
Si 8.78165 10.9585 4.70581
Si 8.21013 4.5461 2.79351
Si 8.49911 2.52144 12.5388
Si 2.92891 18.4183 18.3636
Si 2.53954 7.65812 22.5523
Si 22.1349 10.2573 14.2165
Si 17.3323 22.7597 19.8078
Si 22.743 8.26095 5.5538
Si 12.013 4.05466 8.39636
Si 7.46796 9.36001 10.3091
Si 2.01763 12.6735 20.3972
Si 13.1428 15.7656 9.98867
Si 9.68406 17.2964 12.3623
Si 21.2736 8.13598 12.2677
Si 10.9345 12.8851 7.945
Si 17.3634 5.99359 8.71728
Si 15.5922 10.4819 13.2397
Si 17.626 15.9337 19.983
Si 7.72637 22.9187 2.8806
Si 14.3061 3.15517 16.7516
Si 5.15868 4.18167 9.36872
Si 5.65775 4.31219 2.06154
Si 9.06885 9.64368 14.958
Si 11.7242 17.4622 8.92048
Si 21.7633 17.4537 7.82462
Si 21.3669 2.56771 7.97539
Si 3.12219 5.78992 14.0425
Si 13.709 5.9133 16.0034
Si 18.2393 12.0982 11.6117
Si 21.5819 22.8204 15.1164
Si 12.5698 17.9247 12.1063
Si 18.2376 9.04629 17.103
Si 16.4209 10.6633 6.30802
Si 9.16238 4.95211 5.67243
Si 13.392 9.61212 22.2085
Si 16.0684 21.0757 12.5531
Si 16.6221 4.04127 18.3843
Si 22.1384 18.4249 13.9074
Si 9.46622 16.0694 14.8522
Si 13.7247 4.88072 21.4734
Si 3.1947 2.11991 22.2501
Si 7.53573 8.39377 7.88958
Si 5.19625 17.3772 10.9311
Si 12.803 11.4694 18.8088
Si 15.6591 2.31088 10.0224
Si 16.2526 13.9772 4.92867
Si 22.9552 9.78147 3.25696
Si 3.39056 19.1077 22.7165
Si 11.1342 17.1385 19.8114
Si 11.5455 10.7298 9.12215
Si 21.9004 6.70448 9.8798
Si 19.7925 18.1213 15.2626
Si 19.8936 22.6263 21.4105
Si 18.052 19.412 13.0467
Si 20.6026 7.6194 7.56167
Si 22.9179 20.966 12.8863
Si 20.3469 16.2438 21.6867
Si 7.41869 20.1232 4.75993
Si 3.38326 5.33378 3.07066
Si 22.8279 15.6344 2.84993
Si 21.3302 2.10246 19.2723
Si 13.1405 15.8563 2.69784
Si 12.3339 6.57854 2.42149
Si 14.2381 19.564 21.7903
Si 9.58822 19.7982 15.0115
Si 20.7146 11.1151 7.79208
Si 16.1542 18.0977 21.7952
Si 4.68036 8.51135 13.4234
Si 20.9063 3.05908 5.42162
Si 16.7412 15.6482 2.50239
Si 14.8036 15.541 11.8135
Si 8.18817 3.75863 17.0439
Si 17.7216 8.28409 6.30142
