69
Lattice="22.7523 0.0 0.0 0.0 22.7523 0.0 0.0 0.0 22.7523"
Si 691  13.88750 20.56650 22.32100
Si 696  15.87480 19.80110 20.78340
Si 698  14.17440 23.36040 22.63020
Si 700  12.64660 17.95090 22.66200
Si 701  12.61690 19.59140 25.00218
Si 702  13.81840 20.96010 19.06550
Si 704  11.59370 17.17660 25.48859
Si 705  12.77690 18.93120 27.78883
Si 707  15.02380 18.20850 26.22990
Si 708  11.00340 22.15530 25.48456
Si 719  8.59602 23.91564 25.38616
Si 720  12.28430 24.58985 24.32390
Si 725  13.61170 23.20560 26.55758
Si 727  14.92690 21.09840 28.17956
Si 734  10.49400 26.32256 24.93685
Si 743  10.80180 25.55804 21.90910
Si 748  9.11017 27.64884 22.62710
Si 752  8.21724 27.00156 25.65241
Si 754  9.22865 29.01498 27.36537
Si 758  7.73772 25.26782 28.01138
Si 761  11.59080 29.58891 29.43447
Si 771  13.03720 31.75529 29.06702
Si 772  13.57890 27.84143 28.32402
Si 775  9.96563 28.92671 31.79711
Si 792  13.32970 31.09485 31.94294
Si 793  12.44600 28.77679 33.57280
Si 794  12.01050 26.43511 33.87470
Si 798  14.79030 27.45875 32.56280
Si 802  9.78245 24.62863 34.87290
Si 814  13.15360 24.44719 35.99430
Si 821  11.90430 24.75484 31.01763
Si 827  8.95335 24.02696 31.37514
Si 839  7.64379 22.82710 33.65880
Si 841  10.04020 22.00890 33.63720
Si 843  11.18950 19.24140 34.02860
Si 845  8.02261 21.30400 36.04840
Si 854  11.06800 20.10290 31.25088
Si 861  10.27130 20.29180 28.55397
Si 865  8.16723 19.32060 26.35034
Si 868  7.04399 16.95130 28.04907
Si 869  8.94072 15.82970 29.20726
Si 870  7.28003 18.03460 30.69028
Si 874  4.21521 17.06520 27.37725
Si 886  5.99373 13.94580 28.15400
Si 889  4.17271 11.75350 27.81804
Si 890  4.25750 13.15300 30.44377
Si 898  1.46593 14.34280 29.25819
Si 908  11.96180 16.40350 29.34979
Si 913  9.19045 14.68830 32.17165
Si 923  10.41830 13.38240 27.63979
Si 927  6.57059 25.27968 34.46490
Si 935  5.56304 21.03070 32.31204
Si 937  5.46124 25.46242 37.25850
Si 943  7.09110 28.26025 35.19110
Si 945  4.17301 27.04109 33.00690
Si 946  12.83860 27.87464 25.46777
Si 947  15.45590 16.70220 23.45420
Si 949  17.40670 15.65500 21.21060
Si 952  18.08220 18.01670 22.28030
Si 958  19.96780 17.87950 20.64560
Si 965  19.22760 17.79680 25.04505
Si 979  19.98080 20.37520 22.10110
Si 984  18.02270 21.94010 20.08260
Si 991  21.74100 20.07730 19.32340
Si 992  18.88700 18.33210 17.90650
Si 996  22.74990 16.58200 20.72390
Si 998  16.29410 17.59440 19.11210
Si 1001 18.21290 13.17960 22.29420
Si 1004 14.80510 14.20230 20.38240
