288
Lattice="22.7523 0.0 0.0 0.0 22.7523 0.0 0.0 0.0 22.7523"
Si 672  16.47870 6.08616 18.80820
Si 673  13.70260 5.40843 17.58750
Si 674  16.37320 4.38580 21.19430
Si 675  14.46550 5.00419 23.14950
Si 676  19.32340 4.19564 21.87930
Si 677  16.55490 1.71009 21.24000
Si 678  18.02270 -0.81220 20.08260
Si 679  16.84450 0.94310 24.09567
Si 680  14.17440 0.60810 22.63020
Si 682  17.43880 1.95266 26.96198
Si 683  19.02910 -1.30390 25.00454
Si 684  19.87240 0.16230 27.47760
Si 685  19.98080 -2.37710 22.10110
Si 686  17.72500 -3.59970 26.94679
Si 688  17.33870 -2.81560 29.66370
Si 689  19.22760 -4.95550 25.04505
Si 691  15.02380 -4.54380 26.22990
Si 692  15.95930 -6.86220 27.99973
Si 693  12.61690 -3.16090 25.00218
Si 694  15.45590 -6.05010 23.45420
Si 695  14.74040 -8.74010 24.79395
Si 696  12.64660 -4.80140 22.66200
Si 697  9.76091 -5.39960 21.94260
Si 698  11.59370 -5.57570 25.48859
Si 699  8.81010 -6.72400 24.48307
Si 700  12.84540 -7.96300 26.68377
Si 702  10.41830 -9.36990 27.63979
Si 703  11.96180 -6.34880 29.34979
Si 705  13.68020 -6.73750 31.84192
Si 708  15.12130 -9.52220 32.22072
Si 709  13.92160 -4.63210 34.11720
Si 710  16.27490 -5.47040 30.62899
Si 711  18.98070 -5.88140 31.87333
Si 712  20.38670 -6.14980 29.08515
Si 713  21.21450 -4.27830 32.73584
Si 715  19.41740 -8.64710 33.43360
Si 716  22.44020 -9.16950 34.13380
Si 717  19.42610 -8.21400 36.51190
Si 719  19.09180 -6.84260 38.94680
Si 720  21.71830 -9.86000 38.07090
Si 723  21.26070 -6.27700 37.01580
Si 724  23.07820 -4.12620 37.00340
Si 725  23.92059 -6.84060 38.08360
Si 726  24.34034 -6.14590 41.13620
Si 727  26.65498 -6.69660 37.33490
Si 728  27.96770 -4.36660 37.05990
Si 729  26.01725 -6.34430 34.36590
Si 730  27.79110 -6.02060 32.03468
Si 731  23.36530 -6.43320 33.71000
Si 732  25.21175 -9.39520 34.12700
Si 733  24.47440 -10.44590 37.03780
Si 734  27.37173 -11.10190 37.01160
Si 735  23.56600 -13.42613 36.97560
Si 736  25.46937 -15.62279 36.94450
Si 737  20.85530 -14.95146 36.38530
Si 738  23.25590 -12.87652 40.03930
Si 739  20.18910 -13.22433 39.79110
Si 740  24.59887 -10.25420 41.26340
Si 741  27.22569 -9.11520 40.81290
Si 742  22.16740 -8.99300 42.91330
Si 743  25.31224 -11.86150 43.84800
Si 744  25.30788 -14.83336 43.98690
Si 745  22.34360 -11.50850 44.92340
Si 746  26.55717 -11.64320 46.71973
Si 747  27.03394 -9.10880 47.57316
Si 748  28.71106 -13.71289 47.07487
Si 749  24.33428 -11.70160 48.87157
Si 750  21.55590 -10.16210 49.28599
Si 751  26.92501 -10.99880 50.57034
Si 752  24.29578 -13.81103 50.95479
Si 753  23.96734 -14.39961 48.12679
Si 755  25.83184 -16.66636 48.24809
Si 756  22.17890 -16.43844 47.65157
Si 757  22.63740 -15.91524 44.63100
Si 758  19.44830 -16.94176 47.01644
Si 759  22.43600 -19.65298 47.38810
Si 760  21.10400 -20.69368 44.92030
Si 761  22.70260 -19.43097 50.21578
Si 762  25.16220 -19.02301 46.82713
Si 763  28.01284 -19.79664 45.84410
Si 764  25.77226 -21.18683 48.63154
Si 765  24.85004 -23.49570 46.92769
Si 767  28.52619 -22.44030 47.92528
Si 768  25.36566 -22.93830 51.11763
Si 769  22.58980 -21.94640 51.77768
Si 770  26.69834 -22.50840 53.71006
Si 771  26.30270 -25.68560 50.97309
Si 772  26.96751 -28.43940 50.12955
Si 773  24.51481 -26.31010 53.20462
Si 774  28.37880 -24.94320 49.29156
Si 775  29.04823 -24.94840 51.99940
Si 776  28.31534 -24.47390 55.06434
Si 777  31.20554 -22.86750 51.61212
Si 779  30.03233 -27.47000 53.44258
Si 780  31.51397 -28.02310 56.13600
Si 781  31.94275 -30.81630 54.92395
Si 782  33.94180 -26.26320 56.78090
Si 783  33.82030 -25.40170 54.00318
Si 784  36.17740 -23.45760 53.38159
Si 785  33.02360 -25.21280 51.30627
Si 786  30.91953 -26.18400 49.10264
Si 787  31.27175 -25.81650 46.22980
Si 789  28.41167 -27.01250 45.45710
Si 790  30.60838 -22.93950 45.76790
Si 791  31.34832 -21.58896 48.13846
Si 792  29.07249 -23.36090 43.15920
Si 793  29.41588 -22.97040 40.32950
Si 794  26.96498 -22.44240 44.92390
Si 795  25.80687 -20.29681 43.13690
Si 797  23.04550 -18.71374 43.26670
Si 798  28.06720 -18.63670 41.76160
Si 800  24.39808 -22.05510 41.41260
Si 801  21.89860 -22.37300 42.70670
Si 803  23.64980 -20.07188 39.10210
Si 804  23.08810 -17.51607 40.55680
Si 805  22.54710 -21.79560 36.90310
Si 806  25.92692 -21.51572 38.07310
Si 807  25.72595 -22.55470 35.12070
Si 808  28.21354 -20.04218 37.25850
Si 809  29.88870 -18.90091 39.54060
Si 810  25.88122 -18.39191 35.83330
Si 811  23.21980 -18.37606 34.99290
Si 812  26.92531 -18.46351 33.00690
Si 813  25.89861 -16.74110 30.74598
Si 814  25.13715 -20.94270 32.75800
Si 815  23.50830 -16.17508 32.75410
Si 816  26.35445 -13.55418 30.38813
Si 818  24.26557 -13.11822 32.73975
Si 819  21.34440 -12.55800 33.00360
Si 821  20.77230 -15.49304 33.30480
Si 822  20.02430 -11.24040 30.76013
Si 823  21.28110 -11.39240 35.76730
Si 825  18.86370 -12.79824 35.69550
Si 826  17.59780 -13.40169 33.13720
Si 829  15.07840 -12.32670 32.99420
Si 830  17.51410 -14.45081 30.41326
Si 832  16.23110 -15.89436 34.55800
Si 833  14.89240 -17.20142 36.62310
Si 834  14.79030 -18.04585 32.56280
Si 835  17.34910 -16.11131 37.38210
Si 836  19.11030 -18.33070 38.68420
Si 837  15.98300 -13.54388 38.30020
Si 838  13.02630 -13.59094 37.40990
Si 839  12.31010 -14.38730 40.02220
Si 840  14.04310 -11.61940 35.71140
Si 841  13.10490 -8.86620 35.65240
Si 842  15.13670 -7.36070 37.54380
Si 843  11.07920 -9.54400 33.84050
Si 844  10.82650 -9.35250 37.90270
Si 847  10.00010 -6.73650 36.86680
Si 848  12.63050 -9.96400 40.47470
Si 849  9.00539 -10.45420 36.08240
Si 850  9.37182 -11.55170 38.90530
Si 851  6.88653 -12.94937 38.18050
Si 852  10.81340 -11.68860 41.60460
Si 853  7.02412 -9.67960 39.80680
Si 854  7.86887 -7.27600 41.47390
Si 856  5.54054 -5.63850 42.82530
Si 857  9.65593 -9.10790 43.29700
Si 858  12.14760 -7.58110 42.58120
Si 859  9.24866 -9.30190 46.39980
Si 860  8.52406 -12.24220 46.38550
Si 861  12.12690 -9.97940 46.40270
Si 863  13.52640 -11.15060 44.34220
Si 864  12.42060 -12.12440 48.79239
Si 865  12.55860 -10.90580 51.71018
Si 866  13.12130 -14.61383 47.55036
Si 867  10.25220 -14.05568 48.35051
Si 871  9.22865 -16.48962 50.11767
Si 872  6.49621 -15.97033 51.70191
Si 873  7.76227 -14.91197 54.14237
Si 875  6.27133 -13.38845 49.96051
Si 876  8.20918 -11.17040 50.61574
Si 877  8.79391 -12.28120 53.37975
Si 878  5.99373 -8.80650 50.90630
Si 879  10.89800 -12.46730 55.58110
Si 880  13.32970 -14.40975 54.69524
Si 881  8.81761 -13.42565 57.80190
Si 882  9.31475 -15.84472 59.35000
Si 883  6.20500 -14.77378 56.59300
Si 884  7.09110 -17.24435 57.94340
Si 885  5.76853 -15.49882 60.07190
Si 886  9.61750 -15.82148 62.26830
Si 887  10.24710 -17.69289 64.20090
Si 888  12.46590 -18.92636 65.26290
Si 890  10.49330 -15.81297 66.55890
Si 893  13.31640 -15.20753 67.35500
Si 894  9.11017 -17.85576 68.13170
Si 895  9.00543 -13.40112 66.19440
Si 896  6.14296 -13.91926 65.31790
Si 897  4.98282 -15.30357 67.76030
Si 898  6.52220 -17.69773 66.88620
Si 899  10.80180 -19.94656 67.41370
Si 900  10.38180 -22.06100 65.21060
Si 901  10.66620 -24.79150 64.52970
Si 902  13.24710 -21.53935 63.99820
Si 903  8.82946 -21.06419 62.91120
Si 904  9.78953 -22.12310 60.38490
Si 906  11.25770 -24.33460 61.49950
Si 907  9.78245 -20.87597 57.62520
Si 909  8.02261 -24.20060 58.80070
Si 910  9.20764 -26.46420 60.46810
Si 911  5.03857 -24.94720 57.82870
Si 912  13.61000 -25.73170 60.35760
Si 913  14.42160 -23.68150 58.59200
Si 914  12.45310 -28.64100 60.49520
Si 915  14.70520 -26.79070 62.70780
Si 916  11.85540 -28.08610 63.20870
Si 917  13.81840 -24.54450 64.57010
Si 918  16.29410 -27.91020 64.61670
Si 919  18.88700 -27.17250 63.41110
Si 920  18.45070 -25.17030 61.35390
Si 921  16.72560 -22.96110 60.64790
Si 922  18.29970 -26.40850 58.71290
Si 923  20.45110 -23.01400 61.12150
Si 924  19.48070 -21.74980 63.71330
Si 925  22.40600 -25.19510 62.04290
Si 926  21.74100 -25.42730 64.82800
Si 928  24.34466 -26.42230 66.44280
Si 929  26.23429 -26.52660 64.37900
Si 930  22.85160 -24.80020 68.44460
Si 931  22.74990 -28.92260 66.22850
Si 932  22.04870 -26.36550 70.79351
Si 933  22.33740 -26.50990 73.81830
Si 934  24.23115 -28.42950 70.17633
Si 935  24.96154 -30.41550 72.23650
Si 937  26.31389 -26.01530 70.03105
Si 938  24.95146 -30.98100 68.44680
Si 939  26.19316 -30.46460 65.85200
Si 940  22.10820 -32.06730 69.50380
Si 941  19.60510 -30.66570 69.86618
Si 942  18.50660 -30.66180 72.74783
Si 943  18.21290 -32.32500 67.79880
Si 945  15.94360 -33.87370 68.91270
Si 946  19.63420 -34.69550 67.41450
Si 947  17.75400 -36.81893 66.81870
Si 948  19.88980 -38.86851 65.86270
Si 950  16.68200 -38.29757 69.13030
Si 951  17.02070 -35.94977 70.93991
Si 953  15.98070 -36.07267 73.66602
Si 954  19.57970 -34.90980 72.07966
Si 955  21.35870 -36.09435 74.21989
Si 956  17.86960 -33.40640 74.30386
Si 957  15.29490 -32.32520 74.96629
Si 958  19.79600 -38.72523 74.30575
Si 959  21.63130 -40.63086 74.97774
Si 960  18.17760 -40.54956 72.25118
Si 961  16.15360 -39.12390 73.24071
Si 962  13.57890 -40.41547 73.82862
Si 963  16.45180 -39.92583 76.03666
Si 964  18.20610 -42.27303 76.45722
Si 967  16.43020 -44.27304 75.14134
Si 968  20.82980 -42.01148 77.19459
Si 969  16.98680 -42.50562 79.05090
Si 970  16.15440 -42.67180 81.60510
Si 971  19.18010 -40.41090 79.43370
Si 972  20.83920 -40.58347 82.19060
Si 973  13.15360 -43.80971 81.49890
Si 974  13.51300 -42.62973 84.16090
Si 975  18.61190 -46.05070 75.87065
Si 977  13.91630 -43.12647 74.46005
Si 978  13.61170 -45.05130 72.06218
Si 979  11.90430 -43.50206 76.52223
Si 980  8.95335 -44.22994 76.87974
Si 981  8.04424 -41.58195 76.07735
Si 982  5.37388 -42.80671 75.34265
Si 983  9.96563 -39.33019 77.30171
Si 984  7.73772 -42.98908 73.51598
Si 985  14.92690 -47.15850 73.68416
Si 986  11.00340 -46.10160 70.98916
Si 987  12.83860 -40.38226 70.97237
Si 989  13.03720 -36.50161 74.57162
Si 990  20.65540 -38.76469 62.88990
Si 991  24.21823 -31.16180 74.76279
Si 992  21.46940 -31.81200 74.99551
Si 993  24.89899 -29.04000 76.62726
Si 994  22.06240 -25.12920 76.24379
Si 995  16.59660 -28.82520 58.10800
Si 996  17.83210 -24.39470 56.51940
Si 997  15.08830 -24.72760 55.77030
Si 998  13.69000 -13.39134 65.32630
Si 999  14.80510 -8.55000 43.13470
Si 1000 15.43040 -9.09320 40.13630
Si 1002 23.42450 -24.26380 35.79410
Si 1003 25.91436 -16.41576 41.36660
Si 1004 28.63081 -29.18060 47.55122
Si 1005 29.38310 -31.00260 56.38970
Si 1007 20.05290 -9.32380 40.65710
