13
Lattice="22.7523 0.0 0.0 0.0 22.7523 0.0 0.0 0.0 22.7523"
Si 687 20.80620 0.33300 12.50400
Si 766 20.51330 -2.20450 11.85780
Si 820 18.16750 0.86650 12.44950
Si 905 22.12610 1.83188 10.88310
Si 988 21.08500 0.32770 9.01600
Si 690 6.22213 15.30250 16.13310
Si 846 6.36459 14.05200 14.06890
Si 862 6.87256 18.43890 16.91120
Si 892 7.37576 16.38110 13.01160
Si 778 17.70150 11.56010 16.74750
Si 796 18.55480 10.80650 19.06820
Si 828 16.31200 9.26444 18.47620
Si 966 16.78910 11.70080 14.26370
