334
Lattice="24.2071 0.0 0.0 0.0 24.2071 0.0 0.0 0.0 24.2071"
Si 672  14.08720 4.65825 6.78994
Si 673  16.51720 2.91360 7.46190
Si 674  12.24080 2.05276 6.51499
Si 675  13.29060 5.74693 9.58274
Si 676  15.85200 6.04961 4.76555
Si 677  16.43730 7.41807 1.94245
Si 678  17.29560 3.81137 3.42767
Si 679  17.51560 7.56464 7.05989
Si 680  17.17960 9.89448 9.10529
Si 681  20.14500 6.44785 5.98501
Si 682  18.15110 5.81093 9.47768
Si 683  15.85700 5.16582 11.38910
Si 684  19.97750 7.19538 11.23700
Si 685  19.27840 3.77287 7.55667
Si 686  21.59290 2.49255 8.87965
Si 687  20.53820 0.50025 10.49640
Si 688  23.83870 4.45021 9.28655
Si 689  23.30160 0.47021 7.20929
Si 690  22.37280 0.29180 4.16704
Si 691  26.20369 0.90569 6.36474
Si 692  22.68190 -2.62360 7.04718
Si 693  20.73220 -2.18690 4.56237
Si 694  21.35160 -4.81220 8.70731
Si 695  23.97760 -4.85630 8.05666
Si 696  24.96033 -3.03640 10.40770
Si 697  26.10009 -6.77850 6.76552
Si 698  27.41201 -7.24370 9.45536
Si 699  23.71610 -8.44850 5.86381
Si 700  27.97533 -4.66800 5.88350
Si 701  26.41579 -6.36730 3.91716
Si 702  28.43591 -5.26660 1.72180
Si 703  26.63756 -9.26450 2.81827
Si 704  23.73940 -4.66030 3.46443
Si 705  21.71050 -6.71390 4.17449
Si 706  24.70320 -1.75050 3.43378
Si 707  23.75660 -4.46660 0.17110
Si 708  22.10400 -1.95340 -0.54390
Si 709  26.74042 -3.92320 -0.42280
Si 710  27.24785 -3.58950 -3.19940
Si 711  25.88355 -1.14660 0.64979
Si 712  24.21550 0.05160 -1.43300
Si 713  28.67068 0.30630 1.29079
Si 714  27.58316 2.96503 1.80507
Si 715  28.28245 2.09600 -1.06830
Si 716  31.46942 -0.86340 1.57103
Si 717  31.96259 2.29928 1.50399
Si 718  31.97531 -2.47380 -1.13380
Si 719  33.92918 -2.01710 3.29206
Si 720  35.88660 0.50643 3.62083
Si 721  34.73000 -4.76060 1.87037
Si 722  32.25169 -3.31340 5.49769
Si 723  29.87407 -1.29150 6.21332
Si 724  30.35790 -5.08770 3.90003
Si 725  32.47623 -5.37310 7.92685
Si 726  29.57537 -5.74180 8.48250
Si 727  34.96680 -7.03760 7.13037
Si 728  32.35495 -4.69410 11.11320
Si 729  34.67650 -3.07640 12.33020
Si 730  31.73573 -7.45830 12.66490
Si 731  29.60021 -3.54510 10.83750
Si 732  27.11617 -4.96600 11.47940
Si 733  29.00591 -0.90510 9.18227
Si 734  26.25656 -0.44170 10.13580
Si 735  31.71497 0.66454 9.59744
Si 736  34.17638 -0.70760 10.40380
Si 737  30.91599 3.24037 11.07730
Si 738  31.21779 1.53434 6.79276
Si 739  31.88477 3.55260 4.45499
Si 740  28.43826 2.74798 7.52889
Si 741  27.84879 3.05275 10.65150
Si 742  27.17680 4.98608 5.84570
Si 743  25.56120 6.58379 8.01119
Si 744  25.49691 2.87121 4.07285
Si 745  27.61631 5.67217 3.02361
Si 746  29.56793 7.63720 1.97542
Si 747  25.21747 6.17014 1.60059
Si 748  23.81360 8.38414 2.52623
Si 749  22.98860 4.42154 0.41948
Si 750  26.88176 6.08502 -1.01220
Si 751  29.94722 6.80197 -0.94220
Si 752  26.28412 4.51766 -3.47310
Si 753  25.61521 8.74787 -2.47590
Si 754  27.41349 11.07070 -1.22850
Si 755  25.06310 7.10228 -4.57130
Si 756  22.82990 7.91874 -2.67160
Si 757  22.25200 9.68385 -4.85020
Si 758  20.79850 5.97841 -1.28790
Si 759  19.38420 4.80836 -3.94530
Si 760  19.30980 6.79521 1.05144
Si 761  21.14810 9.22976 1.06901
Si 762  20.14120 4.97637 3.27969
Si 763  22.54840 3.09099 3.07694
Si 764  20.09870 10.17840 3.69796
Si 765  20.22130 10.75740 -1.14540
Si 766  18.44880 10.30190 -3.52830
Si 767  20.76660 13.70400 -2.05510
Si 768  17.87090 11.80270 0.57071
Si 769  19.02340 14.79490 0.24400
Si 770  17.49110 10.03840 3.07733
Si 771  15.14250 12.63240 0.89237
Si 772  15.98700 15.51450 0.51440
Si 773  13.29700 10.60100 1.42419
Si 774  14.56770 8.21917 -0.28670
Si 775  14.82350 10.99120 4.17628
Si 776  10.59960 9.16011 1.50823
Si 777  10.19200 7.56849 3.97467
Si 778  8.53867 10.34950 0.12220
Si 779  11.71410 8.03299 -0.89960
Si 780  10.30310 6.13660 -2.95530
Si 781  10.45790 10.66150 -2.22400
Si 782  11.55830 13.66170 -2.17740
Si 783  9.72027 11.10800 -5.15050
Si 784  12.27860 10.19230 -5.70810
Si 785  7.03415 9.78306 -4.91630
Si 786  9.97603 14.24210 -4.68990
Si 787  7.22428 14.40540 -3.06240
Si 788  10.97970 15.21600 -7.41150
Si 789  13.80070 15.79120 -6.13810
Si 790  9.67740 17.32900 -9.42650
Si 791  10.83720 12.72970 -9.22690
Si 792  8.86016 10.30220 -9.54420
Si 793  12.04970 13.98650 -11.81950
Si 794  13.56230 11.15760 -8.28880
Si 795  16.37790 11.50310 -8.40220
Si 796  13.41410 9.53099 -11.12340
Si 797  10.42160 8.89801 -11.89840
Si 798  14.23200 11.99650 -12.75250
Si 799  15.40290 7.25070 -10.60480
Si 800  17.44560 8.97900 -12.34040
Si 801  16.67260 8.18565 -8.04570
Si 802  16.58020 8.18471 -4.88510
Si 803  19.74150 8.16767 -8.42140
Si 804  22.31990 7.50507 -9.81950
Si 805  20.45550 5.95362 -6.51250
Si 806  20.82770 10.67860 -7.32150
Si 807  19.00360 13.03900 -7.40540
Si 808  23.33640 8.95307 -7.38370
Si 809  26.44499 9.80849 -7.58600
Si 810  26.99762 12.01130 -5.63180
Si 811  28.67415 8.06319 -8.55930
Si 812  26.33617 10.55860 -10.56600
Si 813  23.47270 9.83410 -11.53700
Si 814  28.25011 12.29920 -12.23650
Si 815  28.14608 8.13888 -11.47130
Si 816  27.38555 5.97670 -13.66200
Si 817  29.99546 8.77641 -13.53370
Si 818  31.31666 10.32170 -15.65671
Si 819  30.43079 6.02423 -14.54598
Si 820  27.74506 10.31630 -14.64923
Si 821  25.09087 11.33580 -15.14675
Si 822  27.48913 12.40550 -16.53745
Si 823  30.19726 13.36710 -15.74243
Si 824  27.21361 12.31770 -19.65182
Si 825  24.35920 11.33060 -20.52069
Si 826  29.67269 10.54330 -20.83716
Si 827  32.13340 11.62940 -19.73962
Si 828  29.79557 11.40460 -23.71157
Si 829  30.52580 14.29830 -24.53850
Si 830  28.10581 16.02580 -24.01690
Si 831  32.25946 16.21930 -23.10007
Si 832  31.75144 16.63880 -19.97737
Si 833  35.09360 14.91950 -23.53610
Si 834  32.60231 18.82610 -24.69000
Si 835  33.63701 18.40570 -27.65070
Si 836  34.67530 21.00900 -29.17910
Si 837  36.71190 17.61050 -27.96850
Si 838  30.89719 16.95870 -28.46900
Si 839  30.33422 15.55950 -31.08680
Si 840  28.31684 18.39380 -29.55160
Si 841  25.80035 16.79570 -29.28420
Si 842  30.23433 20.44400 -30.48270
Si 843  29.90587 22.02230 -27.85700
Si 844  28.68895 22.77550 -31.79930
Si 845  31.92084 19.59390 -32.74590
Si 846  32.72591 22.50120 -33.90360
Si 847  29.87162 17.49100 -33.64160
Si 848  26.79440 18.34010 -34.00360
Si 849  25.76805 15.72340 -33.76030
Si 850  26.34788 21.51950 -33.44990
Si 851  23.26410 21.82020 -32.78850
Si 852  27.40912 23.80760 -35.28160
Si 853  30.20533 24.25470 -34.26320
Si 854  25.57241 25.37535 -33.06300
Si 855  25.26864 24.43490 -29.99140
Si 856  22.73770 24.33390 -34.19980
Si 857  24.72899 28.29303 -33.41110
Si 858  25.54338 29.67463 -31.10410
Si 859  23.69650 28.06565 -36.37460
Si 860  22.95740 28.37596 -31.01280
Si 861  22.22960 25.40993 -29.94250
Si 862  20.55160 25.28814 -32.38520
Si 863  21.01310 26.66607 -27.71080
Si 864  23.70720 27.34202 -26.47310
Si 865  18.68630 25.26425 -26.59340
Si 866  19.26970 22.17820 -25.98900
Si 867  15.86320 25.79945 -26.45350
Si 868  16.73070 24.20970 -28.69370
Si 869  16.34110 23.99580 -31.85680
Si 870  15.07580 21.47380 -28.02360
Si 871  16.53570 18.60230 -28.01590
Si 872  13.24960 22.00750 -25.48520
Si 873  13.16230 19.95030 -29.56420
Si 874  13.71210 19.89740 -32.35370
Si 875  13.35940 22.99940 -32.18740
Si 876  11.98720 18.84220 -34.61250
Si 877  16.51380 19.03860 -33.38900
Si 878  16.32410 17.17000 -30.92750
Si 879  16.38450 17.12620 -35.98540
Si 880  19.04510 20.56970 -34.66040
Si 881  20.24110 20.78060 -37.34240
Si 882  21.39290 19.36790 -32.97910
Si 883  18.75450 22.81930 -33.07970
Si 884  19.93850 20.86330 -30.83850
Si 885  22.71560 21.47540 -29.96180
Si 886  19.00770 20.12710 -28.23120
Si 887  23.32290 18.51160 -29.34760
Si 888  24.92054 22.29090 -28.10130
Si 889  21.23920 16.40400 -29.66060
Si 890  18.94020 15.79360 -31.81130
Si 891  23.52890 14.63750 -29.95470
Si 892  24.28850 12.02530 -28.23850
Si 893  22.94070 14.42530 -33.01520
Si 894  20.75450 16.67920 -33.85030
Si 895  22.15270 12.42930 -35.08350
Si 896  19.62180 13.27610 -36.21130
Si 897  23.74630 13.44720 -37.63760
Si 898  22.48180 14.45570 -40.36207
Si 899  26.49605 14.90910 -36.74490
Si 900  19.61360 13.73290 -40.54209
Si 901  22.67820 13.15720 -43.08685
Si 902  19.76960 13.08690 -43.60307
Si 903  17.54330 15.06110 -43.89155
Si 904  14.50580 14.07090 -43.77250
Si 905  18.66540 17.78030 -44.38422
Si 906  17.47290 15.61960 -40.74588
Si 907  14.53900 14.75890 -40.71716
Si 908  18.90890 18.00530 -39.25352
Si 909  16.62560 19.55990 -37.99910
Si 910  19.37440 16.25750 -36.66010
Si 911  14.75850 19.44820 -40.49352
Si 912  16.52350 22.53480 -37.21490
Si 913  13.94660 23.91670 -37.56130
Si 914  18.68150 22.85330 -39.34418
Si 915  18.17080 24.80606 -36.06740
Si 916  17.02060 26.49464 -33.68040
Si 917  16.17280 26.29466 -37.93010
Si 918  14.17260 27.07399 -34.69710
Si 919  19.41710 28.18364 -32.89700
Si 920  21.07340 29.18416 -35.35540
Si 921  12.17200 28.26862 -36.65820
Si 922  12.84340 27.69669 -31.83000
Si 923  12.75500 24.43460 -34.88470
Si 924  10.27310 25.86098 -35.83430
Si 925  7.58495 26.93212 -34.51140
Si 926  8.62757 29.36158 -33.46870
Si 928  10.83920 30.44844 -35.14000
Si 929  6.17956 29.89979 -32.25080
Si 930  11.07640 30.38333 -32.11140
Si 931  12.23120 31.41342 -29.51580
Si 932  13.98490 28.81066 -29.24500
Si 933  16.38690 29.55238 -27.68630
Si 934  12.10220 27.94298 -26.85480
Si 935  14.57730 28.53895 -25.41190
Si 936  10.92570 25.58893 -27.61490
Si 937  11.62850 25.02578 -30.47660
Si 938  8.21229 26.99456 -27.91000
Si 939  10.49740 22.76770 -26.68740
Si 940  6.60866 29.22783 -29.46410
Si 941  6.83903 24.47480 -29.29720
Si 942  6.69103 28.01240 -25.23230
Si 943  9.23425 23.31550 -30.92280
Si 945  4.70852 25.39684 -30.49070
Si 946  3.14240 26.06444 -28.18370
Si 947  4.22515 28.23739 -31.12420
Si 948  7.41637 31.44857 -27.56890
Si 949  14.48640 28.30551 -22.24590
Si 950  11.89010 29.33099 -21.23076
Si 951  13.24750 25.71948 -22.62050
Si 952  10.76120 26.95003 -22.50319
Si 953  15.15610 23.89390 -24.14190
Si 954  17.51110 22.09280 -23.33714
Si 955  20.21730 21.36850 -22.43677
Si 956  16.23320 19.25230 -23.24328
Si 957  19.11970 18.65360 -23.26307
Si 958  13.24060 19.74090 -23.48033
Si 959  15.24660 17.13070 -21.15613
Si 960  16.03440 18.81440 -18.93243
Si 961  12.70320 15.92500 -21.34983
Si 962  10.50050 17.46980 -19.77268
Si 963  13.97020 20.69590 -20.56274
Si 964  15.39870 22.80810 -19.37753
Si 965  13.04590 21.59650 -17.92796
Si 966  12.14640 23.70660 -15.92462
Si 967  18.14120 22.81350 -18.20882
Si 968  16.75410 25.34110 -19.09800
Si 969  10.53010 28.30309 -18.77605
Si 970  10.01190 31.09755 -17.39801
Si 971  6.87255 31.80983 -17.16782
Si 972  12.09920 32.43081 -15.62515
Si 973  13.24290 34.15387 -17.73680
Si 974  10.05410 34.52530 -14.55667
Si 975  10.41290 37.60780 -14.41500
Si 976  10.46100 38.19840 -17.46926
Si 977  7.69599 38.35210 -13.34030
Si 978  6.97307 36.50350 -11.03830
Si 979  6.08059 37.34790 -8.38570
Si 980  6.57811 34.27990 -7.75470
Si 981  3.43855 38.42080 -7.55700
Si 982  7.40279 38.28530 -18.17954
Si 983  10.90010 35.83990 -19.23310
Si 984  9.90362 36.56320 -21.90220
Si 985  14.57460 35.96100 -15.62239
Si 986  7.12848 30.77595 -19.90695
Si 987  13.08750 17.04130 -39.39149
Si 988  13.47490 16.64350 -36.24970
Si 989  20.05010 11.28210 -38.72567
Si 990  22.27380 9.02831 -38.24120
Si 991  23.76050 9.05536 -40.84597
Si 992  22.40660 8.22522 -43.44616
Si 993  16.93190 12.02230 -35.65960
Si 994  25.18391 12.99460 -25.49620
Si 995  24.01110 13.63810 -22.60515
Si 996  25.98298 15.74060 -26.26170
Si 997  22.75310 15.74390 -25.62200
Si 998  21.66720 15.56930 -22.54860
Si 999  22.50120 22.83770 -36.90400
Si 1000 14.78950 16.52160 -26.32520
Si 1001 15.57990 14.11450 -28.22150
Si 1002 13.68720 11.90050 -27.56060
Si 1003 18.62550 13.32910 -28.58520
Si 1004 15.56990 9.86645 -26.82430
Si 1005 25.03803 26.24976 -38.13970
Si 1006 29.42242 11.92290 -3.54250
Si 1007 27.10387 -1.84540 5.42745
