524
Lattice="21.9108 0.0 0.0 0.0 21.9108 0.0 0.0 0.0 21.9108"
O 0   15.43460 12.72200 2.19187
O 2   17.68310 12.50910 1.42450
O 3   16.83960 10.72090 3.00348
O 4   14.66860 13.99930 0.04550
O 5   13.04850 15.13920 -1.31650
O 7   17.23170 13.24530 -1.08990
O 8   13.81370 12.32680 -2.33770
O 9   14.80470 14.36110 -3.19480
O 10  16.13130 11.72300 -2.81900
O 12  13.93870 12.61050 -4.81870
O 13  11.33520 11.53550 -2.44790
O 14  11.68860 13.87140 -3.08430
O 15  13.67090 10.83350 0.21330
O 16  14.00350 8.47488 -0.39850
O 17  15.44770 9.24918 1.48510
O 18  10.97060 10.79330 -0.12680
O 20  11.65080 8.96580 1.40280
O 21  13.66270 9.93479 3.08113
O 22  15.28870 8.69085 4.30176
O 23  11.35130 10.25200 4.27303
O 25  10.46900 12.41760 3.83366
O 26  8.73739 10.58580 4.36934
O 27  10.20540 11.37040 6.37153
O 31  8.37803 12.94130 5.82118
O 33  10.12290 13.56790 7.58513
O 34  8.35593 11.85730 8.33237
O 35  9.51180 9.49667 8.26573
O 36  8.92817 7.12710 7.96348
O 37  10.60610 8.08408 10.10630
O 39  8.42341 9.22657 10.58340
O 41  7.02864 8.58139 8.30996
O 42  8.00681 8.93273 6.04290
O 43  10.64400 10.54780 10.56290
O 44  8.53185 11.64310 10.76270
O 45  10.89820 13.02030 11.00050
O 46  9.15438 12.70270 12.78170
O 47  12.59820 14.94630 11.36670
O 51  10.54950 15.45630 10.10870
O 52  13.46480 12.57040 10.65350
O 53  10.35290 14.96760 12.70130
O 54  12.69780 13.33020 13.39610
O 56  11.66320 14.97590 14.87040
O 57  13.20360 10.99710 14.37100
O 58  11.16210 12.27150 15.18450
O 59  13.81990 15.87450 13.61150
O 60  14.86420 11.35780 12.68820
O 61  13.97240 9.03296 13.01940
O 62  16.98180 9.68329 13.60960
O 63  17.54170 9.51921 15.93510
O 64  16.98370 9.66116 11.10830
O 65  17.94140 7.24886 14.32260
O 66  16.27410 7.47029 12.13740
O 69  14.80940 9.16036 15.29480
O 70  18.79830 8.19698 12.02500
O 71  19.53400 11.13220 12.80630
O 72  18.59470 11.42450 10.40580
O 73  20.55340 12.96430 11.26740
O 74  21.10170 10.44920 10.79380
O 75  19.77520 9.39509 8.91757
O 76  22.21810 9.89070 8.30021
O 78  20.92790 12.19800 8.47033
O 79  19.11010 11.32540 7.21066
O 80  23.04730 12.09340 6.97680
O 81  19.23500 14.13650 9.28433
O 82  20.61640 12.07930 5.47761
O 83  19.25960 10.77040 3.70156
O 84  22.01660 11.25430 3.45139
O 85  20.25890 13.08880 2.99798
O 86  18.49440 14.94270 2.70533
O 87  20.98330 15.19460 1.58675
O 88  20.17760 16.11730 -0.71080
O 90  23.15420 13.35590 1.08540
O 91  21.33330 13.36220 -0.62670
O 92  23.25350 14.68360 3.34682
O 93  23.39900 16.97070 4.05662
O 94  24.43023 12.51130 3.45647
O 95  24.25996 14.75960 5.81868
O 98  25.44094 14.15420 1.90303
O 99  21.85370 15.43750 5.56762
O 101 23.60190 16.76400 1.19710
O 102 22.19050 18.48090 2.34914
O 103 22.58050 17.80370 -0.97950
O 104 24.90932 16.70300 -1.28360
O 106 26.46853 17.03180 1.39520
O 108 24.85727 18.95880 -0.36710
O 109 25.65175 20.73170 -1.63410
O 110 24.29149 18.57790 -2.76560
O 112 27.05980 18.39720 -1.66520
O 114 27.92484 19.71630 0.26440
O 115 28.51267 17.00510 -0.07330
O 117 29.74072 18.94110 -1.32040
O 119 27.48175 15.64580 -2.52720
O 120 26.07874 17.26660 -4.25410
O 121 25.08071 15.01000 -3.63690
O 123 28.56987 17.74440 -4.52880
O 124 27.08698 17.94640 -6.51420
O 125 26.93806 19.69450 -4.52840
O 126 27.27338 15.00480 -4.86840
O 127 29.67083 15.50500 -4.78290
O 129 28.81187 12.94160 -5.29180
O 130 26.13989 13.30380 -6.91640
O 131 26.80587 15.73040 -7.68310
O 132 24.61916 15.24700 -6.15960
O 134 23.61553 13.24880 -4.81640
O 135 22.57430 15.59110 -4.27900
O 136 21.83120 14.55050 -6.52600
O 137 20.29090 14.30110 -4.62830
O 138 22.29330 14.25920 -9.03630
O 139 20.50740 15.84070 -8.33960
O 141 20.84250 16.77120 -5.57830
O 143 23.28850 12.46120 -7.60830
O 145 24.12681 10.24180 -8.58520
O 147 23.84943 12.33150 -10.13940
O 149 25.72970 12.51690 -12.07069
O 150 25.89956 10.24870 -10.55140
O 151 25.93808 8.28782 -9.00470
O 152 26.65289 12.04800 -8.95710
O 153 28.35175 10.27630 -9.63790
O 155 27.56934 10.44160 -12.65082
O 156 23.76451 8.35957 -10.37690
O 158 24.74142 10.09800 -13.25433
O 159 26.35706 8.13140 -13.09362
O 160 26.37542 11.80150 -14.40631
O 161 24.17188 7.70120 -14.23654
O 163 26.42667 9.30649 -15.15900
O 165 28.33683 10.92540 -15.88856
O 166 25.98089 11.26470 -16.87216
O 168 26.06955 10.68500 -19.35649
O 170 26.09264 8.15972 -19.06910
O 171 28.42902 10.48060 -20.39720
O 172 25.53323 12.04140 -21.50780
O 173 26.84200 9.98519 -21.97760
O 175 28.22873 9.36530 -17.79813
O 176 23.24280 10.32820 -20.43050
O 177 24.60916 8.73744 -22.21800
O 179 22.55620 10.39460 -23.10140
O 180 20.49860 10.63860 -21.70150
O 181 19.82020 8.97988 -23.51610
O 182 18.20920 9.27445 -21.48170
O 183 18.29620 11.00540 -23.26550
O 184 15.89650 9.49781 -23.35810
O 186 18.85260 12.33910 -25.83920
O 187 21.12420 11.62350 -25.01720
O 189 20.47490 11.38970 -27.70490
O 190 19.77930 9.71515 -26.00190
O 191 19.45840 14.54770 -24.23210
O 192 17.89070 15.16040 -26.05320
O 193 16.14070 13.18770 -26.76730
O 194 15.81360 15.34650 -27.79380
O 195 18.23400 14.28200 -28.40260
O 196 17.94020 16.82140 -28.23220
O 197 18.39440 14.33480 -31.02150
O 198 16.57440 15.91570 -31.74970
O 199 17.12510 13.74320 -33.13630
O 200 20.09540 15.50500 -32.76170
O 203 20.92520 17.67490 -31.78810
O 204 17.72840 16.13970 -33.72470
O 205 18.79720 18.04550 -33.22180
O 206 22.94700 16.22390 -33.04630
O 208 23.34730 16.72350 -30.69580
O 209 24.00479 18.48840 -34.16695
O 210 25.46965 16.54630 -31.98210
O 211 27.53525 15.30220 -32.86090
O 213 26.98228 17.71740 -33.69820
O 215 27.78297 17.38920 -31.14380
O 218 25.25275 19.54630 -32.27780
O 219 22.92090 19.10160 -31.75430
O 220 24.41476 21.38560 -30.88190
O 221 26.88978 20.53860 -30.41930
O 222 23.20260 20.96020 -33.55320
O 224 24.86680 19.16120 -29.51650
O 226 22.71120 20.42910 -28.68710
O 227 24.60222 20.26330 -27.08450
O 228 23.13480 18.15400 -27.61460
O 231 21.65840 18.20200 -29.49800
O 232 20.56200 19.27610 -27.46000
O 233 19.12770 19.93620 -25.48280
O 234 18.74050 19.10500 -29.22980
O 236 21.53720 18.93130 -25.01200
O 237 20.37380 21.05520 -29.47480
O 239 20.92840 22.29460 -27.61930
O 240 23.11340 22.94150 -28.38380
O 241 20.12540 24.15413 -28.96880
O 242 22.83350 22.79840 -25.69940
O 243 20.44970 23.76617 -25.26880
O 244 21.55590 26.13311 -25.05100
O 245 22.52520 24.16920 -23.63010
O 246 19.93680 26.08600 -26.66940
O 247 19.75760 24.02747 -22.41280
O 249 22.44390 25.07360 -27.02710
O 251 17.89760 22.21430 -25.40130
O 252 16.46260 22.79080 -27.29840
O 253 16.94800 19.88210 -26.48260
O 254 16.45040 21.08250 -23.07920
O 255 16.73060 23.61858 -22.96380
O 256 17.36530 22.57620 -20.80130
O 258 15.68760 25.55771 -24.20740
O 261 14.22760 23.16110 -23.28720
O 262 14.55720 22.23550 -20.99140
O 263 12.62000 22.02300 -25.04980
O 265 13.58130 25.46851 -22.05110
O 267 11.98050 24.61565 -23.80610
O 268 10.28780 23.21870 -24.80610
O 269 12.00200 27.09535 -23.40630
O 270 11.14130 25.84714 -21.34950
O 272 9.13050 24.93639 -23.62070
O 274 7.49042 23.30980 -22.58680
O 275 9.83159 23.46840 -21.62410
O 276 8.00377 25.43520 -21.28410
O 278 7.99994 23.18550 -25.27390
O 279 6.41983 25.39847 -23.71660
O 280 9.94444 25.38226 -26.24500
O 282 11.93840 24.06295 -27.82540
O 283 9.52783 22.74890 -27.70440
O 285 11.23740 22.20230 -29.49060
O 286 10.16140 24.59548 -29.49260
O 287 7.82405 21.08130 -26.44070
O 288 10.28200 20.64430 -25.98100
O 289 12.57640 19.63810 -25.45410
O 290 8.70708 21.26620 -23.83620
O 291 10.56360 18.08490 -25.05370
O 292 10.51740 19.61280 -23.14210
O 293 12.63210 18.40180 -23.09110
O 294 8.88021 20.23540 -21.28320
O 295 10.48080 16.94820 -22.68050
O 296 11.84180 15.61570 -21.09880
O 297 9.17800 15.38790 -21.09350
O 298 10.15610 17.73070 -20.24371
O 300 8.10774 19.54640 -19.11779
O 302 13.04530 18.28280 -20.63870
O 303 12.53500 16.74480 -18.70784
O 304 14.95320 17.68960 -18.95570
O 305 12.64150 19.20680 -17.23598
O 306 11.26790 21.13260 -16.58837
O 307 13.09940 21.21930 -18.70599
O 308 11.16420 19.12410 -15.15406
O 309 15.36880 19.40190 -16.97426
O 310 16.57080 18.72670 -14.87748
O 311 17.31460 19.06120 -18.55801
O 312 15.12430 20.03280 -19.52616
O 313 15.43420 22.42470 -18.67699
O 314 14.95920 18.94800 -22.13240
O 315 12.99670 20.63720 -21.41150
O 316 10.64120 21.43740 -20.18438
O 317 8.47121 22.01230 -19.11742
O 318 12.17160 23.48037 -20.17376
O 319 11.21760 23.47406 -17.96020
O 320 13.89720 24.10586 -18.12326
O 322 12.09740 25.68129 -18.40705
O 323 10.15780 27.26849 -19.17907
O 324 13.58570 25.83939 -16.17218
O 326 13.94190 26.99088 -19.95002
O 328 13.68290 27.78866 -17.55520
O 330 9.47834 25.09949 -17.01201
O 331 9.06943 22.69400 -16.42717
O 332 8.68518 26.60984 -14.99408
O 333 11.23310 23.84752 -15.42045
O 334 6.91150 25.87909 -16.73912
O 336 5.10174 24.03455 -16.48998
O 337 4.97178 25.79143 -18.50803
O 338 6.83410 23.92947 -18.50196
O 339 5.83254 25.07269 -14.03029
O 340 4.60121 22.92090 -13.97008
O 341 6.97271 27.38282 -13.43894
O 342 4.36445 27.27711 -13.98238
O 344 3.24256 25.16181 -14.64859
O 345 6.88156 22.84680 -15.14496
O 346 5.42930 26.42370 -11.69900
O 347 6.17337 23.99101 -11.31490
O 348 4.10087 22.55620 -11.42610
O 350 7.90657 23.77520 -9.35730
O 352 5.22405 23.08130 -9.04070
O 353 8.12943 25.77284 -11.22430
O 354 7.34226 21.62240 -10.70740
O 355 8.52303 21.37960 -8.67960
O 356 8.05995 19.23380 -11.52240
O 357 5.82410 20.10860 -12.39332
O 359 9.93600 21.25640 -11.76390
O 360 10.52950 19.35150 -10.16970
O 361 12.09000 19.70600 -12.38455
O 362 12.49090 21.14800 -14.25500
O 363 14.39470 19.08600 -12.64952
O 364 13.92290 21.47910 -12.07701
O 365 12.62770 17.08690 -12.39807
O 366 9.96606 17.73120 -12.59421
O 367 9.35501 17.27390 -10.05900
O 368 7.71955 16.55310 -11.63880
O 371 11.27950 15.96620 -14.18531
O 372 12.23480 13.82600 -15.61566
O 374 14.22620 15.53560 -14.53125
O 375 15.33520 16.88380 -12.73935
O 376 14.55380 14.65920 -12.04148
O 377 16.66820 14.76010 -13.58060
O 378 16.49050 12.37730 -14.98140
O 379 16.70770 14.71480 -16.37007
O 380 17.66810 12.52010 -17.21993
O 381 14.51610 12.81580 -16.32939
O 382 19.51340 15.63550 -16.91197
O 383 18.56140 17.75080 -15.95715
O 384 20.05610 16.13240 -14.46052
O 385 19.45900 17.79320 -18.50504
O 387 17.73420 17.19800 -20.30728
O 388 17.93390 19.56870 -21.10300
O 389 19.64240 19.09940 -23.10760
O 390 16.87730 18.67400 -23.66790
O 391 16.51680 17.36370 -25.68020
O 393 17.61980 16.18900 -23.32950
O 394 15.09690 16.54910 -23.70240
O 395 13.23180 16.48270 -25.58050
O 397 11.04320 15.70690 -26.61490
O 399 12.79870 17.26080 -28.07020
O 400 15.05270 18.53360 -27.48200
O 402 16.36410 18.06170 -29.65270
O 403 15.32440 20.44530 -29.21300
O 404 13.02140 20.30770 -28.25700
O 405 14.63420 21.39870 -26.13350
O 406 13.97610 24.23484 -26.61640
O 407 14.95210 25.23945 -28.43760
O 408 14.71890 26.89591 -26.37020
O 410 13.90230 29.18950 -26.92960
O 414 12.96480 27.12926 -28.21210
O 415 16.67370 27.23836 -28.14580
O 416 12.17000 27.53935 -25.86110
O 417 17.46690 27.46294 -25.63800
O 418 17.52610 26.87117 -23.33850
O 419 17.43680 30.07426 -25.18830
O 420 18.77810 29.19978 -27.19600
O 421 19.64510 28.87656 -24.98640
O 424 21.65770 30.37662 -25.26750
O 425 23.92706 29.85931 -24.28450
O 426 23.37530 32.77910 -25.73310
O 427 23.20910 34.66600 -23.91900
O 428 25.54129 31.16852 -26.22270
O 429 25.40680 32.72020 -23.88200
O 431 25.82707 34.11550 -25.92380
O 433 27.84597 32.98160 -24.70820
O 434 29.51430 32.57640 -26.20710
O 436 29.33978 33.01980 -22.81930
O 437 26.58450 30.38295 -24.05840
O 440 27.72856 29.71887 -26.37090
O 442 25.63878 28.45423 -25.68220
O 443 26.64373 29.04909 -21.54680
O 444 29.01513 30.48371 -22.28720
O 445 30.87177 31.73125 -20.93460
O 446 28.70320 27.88776 -22.03990
O 447 30.08583 29.77452 -24.99030
O 448 32.04560 28.56999 -24.52310
O 450 28.55693 27.72327 -25.18120
O 451 26.20945 27.22217 -23.43550
O 452 27.81857 26.27246 -27.75330
O 453 25.37251 26.41338 -27.57450
O 454 26.40521 24.53076 -28.88610
O 456 28.26127 25.42800 -30.14450
O 457 29.09165 27.98135 -29.22490
O 458 27.23944 23.99824 -26.64420
O 459 26.30898 28.36598 -29.09360
O 460 25.48547 30.60759 -28.57610
O 461 28.11823 30.32525 -29.24950
O 463 27.76919 27.76842 -31.56880
O 465 29.86768 28.19560 -32.80720
O 466 27.98983 29.97262 -33.10220
O 467 25.31043 27.58818 -32.80780
O 469 23.58845 25.87920 -32.01870
O 470 24.14968 25.95008 -34.45979
O 471 22.54570 24.71053 -36.17239
O 472 23.74830 27.24208 -36.97212
O 473 21.83840 28.43612 -35.61031
O 474 25.95165 26.97929 -38.39514
O 475 22.18620 27.62792 -39.24055
O 478 20.94620 29.02425 -40.82367
O 480 20.10030 28.72774 -38.49098
O 481 20.14650 26.07969 -39.98393
O 482 20.53000 26.22586 -37.40980
O 483 20.09230 24.52323 -35.78714
O 484 18.00660 25.57987 -38.58436
O 485 18.12920 24.40167 -40.83484
O 486 18.29230 23.07240 -38.21618
O 487 18.06150 27.32695 -40.48703
O 488 15.94180 26.72172 -37.37917
O 489 17.35660 24.19744 -36.23544
O 490 15.54570 26.49056 -39.95078
O 492 15.96380 28.72036 -41.04139
O 493 18.23020 29.88740 -41.21506
O 494 17.44410 28.54499 -43.31360
O 495 17.57990 29.29130 -38.87500
O 497 18.27280 28.65206 -36.46737
O 499 17.18070 31.86861 -38.37822
O 500 19.18500 30.82855 -37.33120
O 501 15.34770 29.87437 -37.00016
O 502 14.07520 27.88513 -36.16275
O 505 14.87030 32.32310 -37.45128
O 506 12.78870 29.63459 -37.77505
O 507 13.06980 30.28014 -35.46168
O 509 15.06150 29.66048 -34.05714
O 511 15.21140 27.39705 -32.60580
O 512 13.83970 32.09840 -33.90605
O 513 15.88650 33.55420 -34.08566
O 516 14.03180 34.06980 -35.69591
O 517 17.35880 31.72522 -35.34079
O 518 14.40300 27.53269 -30.16010
O 521 16.89300 25.45243 -32.82570
O 522 16.94360 26.92992 -30.58710
O 523 12.93560 25.93042 -31.81570
O 524 13.24170 24.26456 -29.93130
O 525 19.06140 26.71882 -29.19130
O 527 18.80640 27.23211 -32.35160
O 528 18.96870 25.10718 -30.97920
O 530 21.26070 26.12527 -30.38430
O 531 17.04440 23.25350 -31.63550
O 532 19.37990 22.47640 -31.98860
O 533 18.35240 22.58080 -29.52880
O 534 17.48660 20.75620 -31.24690
O 535 17.23660 20.59890 -33.73410
O 536 14.99150 20.32790 -32.06940
O 537 16.56540 18.44000 -32.44030
O 538 14.05620 17.63680 -32.31720
O 539 11.85820 17.30800 -31.31590
O 540 17.19230 21.45880 -35.91730
O 541 19.74000 20.40520 -33.86046
O 542 19.67050 21.49130 -36.07038
O 543 20.78060 18.11810 -34.88742
O 545 21.18780 23.02390 -33.79940
O 546 23.28600 23.14400 -32.74650
O 547 22.22200 21.83380 -35.64018
O 548 21.56050 20.62350 -37.60651
O 549 23.25080 19.79970 -39.03971
O 550 21.41240 18.14490 -37.41184
O 551 23.22690 22.52820 -38.78961
O 552 23.63973 18.95490 -36.55173
O 553 25.81880 19.02770 -38.18299
O 556 25.30679 20.77610 -35.24602
O 557 24.97696 21.24650 -37.59967
O 558 27.38894 20.36120 -36.92697
O 559 24.76296 21.29830 -40.37486
O 561 26.68551 19.49440 -40.87883
O 562 28.21983 17.50230 -40.95956
O 563 26.11902 16.99860 -39.72475
O 564 28.61206 19.05990 -38.85220
O 566 28.00628 21.89460 -41.88451
O 570 28.30745 21.44140 -39.38985
O 571 29.96622 20.66200 -37.54387
O 572 27.38245 16.90370 -37.53890
O 573 28.60915 18.11720 -35.80725
O 574 28.73637 15.40360 -36.06055
O 575 30.27796 16.77410 -37.57527
O 577 26.15065 14.63500 -36.13300
O 578 27.88986 13.88910 -37.86157
O 579 29.74761 14.97650 -39.28478
O 580 28.57392 12.93650 -40.23036
O 581 30.13264 13.01730 -42.25102
O 583 28.40076 14.95690 -41.88848
O 584 29.30120 14.09290 -44.62010
O 585 31.48525 13.24800 -44.54110
O 587 31.27207 14.74040 -46.54930
O 589 31.78229 13.38320 -48.71820
O 590 30.94702 14.48880 -51.08070
O 591 30.46005 11.51600 -50.25370
O 593 27.78659 11.09740 -50.35290
O 594 28.68178 13.07280 -51.77840
O 595 32.63140 9.71876 -50.60150
O 596 30.91294 9.79160 -52.68360
O 597 31.20079 7.28268 -51.38010
O 598 32.57870 7.69189 -49.21550
O 599 34.53490 9.40087 -48.88220
O 600 34.53500 7.35916 -51.32970
O 601 36.88350 9.24470 -47.72930
O 602 37.11360 7.23943 -46.22960
O 603 36.32950 5.96308 -44.25610
O 604 34.61460 7.43660 -46.07900
O 605 38.01150 4.34638 -43.08570
O 606 40.44040 4.11584 -43.08750
O 607 42.26510 4.73897 -44.78710
O 608 42.99640 3.57190 -42.69320
O 609 43.81910 5.91518 -42.61920
O 610 45.38564 3.78293 -41.88141
O 611 46.43478 3.48636 -39.66817
O 612 47.26716 2.16319 -41.68597
O 613 46.75629 3.14036 -44.02800
O 614 46.85246 5.88084 -40.63148
O 615 48.05026 4.79930 -42.71500
O 616 49.12008 2.59568 -43.51970
O 618 46.21111 6.25958 -43.98390
O 619 46.40974 7.72223 -38.99099
O 621 46.77484 2.22539 -46.29780
O 622 46.05191 4.49032 -46.49400
O 623 41.81490 7.40495 -43.11640
O 624 29.56936 14.86310 -53.30550
O 625 29.81697 13.93860 -55.68230
O 626 29.14828 16.76740 -50.71780
O 627 30.89134 17.97500 -49.28530
O 628 32.57640 13.64040 -42.19931
O 629 20.65000 23.20620 -40.00765
O 630 21.46810 21.10110 -41.03305
O 631 18.18300 21.69400 -40.25811
O 632 18.43750 20.19350 -38.09603
O 633 24.50264 23.88558 -30.71560
O 635 22.10520 22.52740 -30.48710
O 636 22.85760 28.18653 -30.91230
O 638 21.78540 30.33781 -30.72940
O 640 21.39100 29.54741 -28.25620
O 641 18.57130 26.49469 -35.04988
O 642 21.03830 26.51018 -34.18194
O 643 11.41000 28.23561 -36.10025
O 644 11.55740 25.70703 -35.42741
O 645 10.19050 29.38743 -38.31844
O 646 11.46520 29.20674 -40.35282
O 647 8.92732 29.39811 -40.65369
O 648 7.40435 27.25026 -41.57144
O 649 6.29585 28.81796 -39.64900
O 651 9.22151 27.57531 -43.48500
O 652 11.72490 28.35743 -42.84880
O 653 13.15240 23.76368 -35.48799
O 655 15.04120 25.48105 -35.44253
O 656 30.88341 26.45648 -30.90940
O 657 28.43544 22.81580 -29.03170
O 658 26.39048 21.50000 -28.16750
O 660 28.72407 20.17550 -28.96170
O 661 32.06960 30.33567 -22.66000
O 662 24.67743 36.08850 -22.48190
O 663 19.47560 17.27680 -24.85960
O 664 13.99170 22.43360 -16.32036
O 665 8.89554 23.57467 -13.99445
O 670 6.23577 21.15140 -24.40740
O 671 23.96941 22.10060 -22.21930
