74
Lattice="21.9108 0.0 0.0 0.0 21.9108 0.0 0.0 0.0 21.9108"
Si 680  4.63825 3.37796 16.48630
Si 894  4.11307 1.81282 18.24830
Si 960  3.24590 5.31396 14.80040
Si 681  9.04975 5.06284 11.20750
Si 696  11.55390 4.96863 11.94820
Si 720  9.83962 4.28660 14.22190
Si 754  11.48880 7.18666 11.06300
Si 764  12.83550 8.00753 12.87840
Si 783  12.82090 5.72360 14.05930
Si 843  10.78090 2.00132 10.98430
Si 868  13.69770 2.55265 12.21560
Si 879  15.86830 2.14775 11.35940
Si 901  11.86390 0.39590 12.82550
Si 920  13.86280 -0.44880 11.58920
Si 936  13.55520 2.41949 15.57490
Si 953  14.61450 2.14969 8.98000
Si 956  16.92990 1.06110 8.53190
Si 968  18.50100 -0.90050 8.91942
Si 992  8.63030 0.47330 12.04190
Si 998  9.39615 0.60690 9.07612
Si 692  11.47450 15.96650 4.31743
Si 703  8.96028 16.15350 4.85253
Si 714  12.00240 18.12300 5.74200
Si 831  9.92630 18.06140 3.29303
Si 846  13.21290 13.65850 5.06151
Si 855  13.98140 16.41600 6.09326
Si 892  11.74880 13.23950 2.79573
Si 698  17.25710 1.71453 17.74750
Si 802  14.90470 0.98050 17.13890
Si 854  17.12130 4.24303 19.07540
Si 857  19.46590 0.87560 15.59970
Si 704  0.44620 13.10940 8.16012
Si 705  -1.80420 12.55660 6.97239
Si 727  1.57591 10.74260 7.82865
Si 743  1.28950 15.46820 9.32684
Si 827  2.80656 15.27260 7.25876
Si 834  -1.59110 15.05180 6.27356
Si 841  2.55918 17.81290 8.16963
Si 874  3.82990 20.04790 7.09554
Si 991  2.15584 15.70810 11.95760
Si 715  0.46240 7.37006 11.73270
Si 728  -0.56260 6.30423 9.74671
Si 731  0.62050 5.10097 13.98760
Si 774  -2.72150 6.89469 11.14320
Si 811  -0.46840 8.98117 14.53890
Si 924  1.36330 10.87270 14.57520
Si 967  -1.89200 11.27420 14.41270
Si 974  -3.47800 13.33380 14.14510
Si 1007 -3.75590 6.19565 8.88901
Si 721  10.05010 6.55546 3.97091
Si 824  7.63374 6.49751 3.33580
Si 736  15.09750 14.31670 1.61405
Si 765  17.20740 15.85630 2.30171
Si 930  15.87520 15.66810 4.55970
Si 753  20.25880 0.52330 21.80320
Si 799  22.38710 -0.47890 21.64210
Si 819  19.29960 -1.94330 21.99870
Si 970  21.27020 0.81130 24.31100
Si 988  21.53030 -2.09670 23.62048
Si 766  2.67954 20.58860 21.50770
Si 820  4.79478 21.81270 19.75990
Si 778  0.73760 9.74215 2.93397
Si 796  1.49780 8.89469 5.26076
Si 797  0.16420 9.91146 0.36000
Si 828  -0.52540 7.50616 1.47790
Si 881  -0.41440 7.25384 4.58084
Si 966  1.61149 7.62165 -0.78470
Si 781  4.10963 13.62360 0.34920
Si 926  5.95893 14.40840 -1.48130
Si 940  4.89632 11.10620 1.15470
Si 963  1.13690 13.54310 -0.59270
Si 809  10.41270 18.02000 12.84700
Si 826  9.91682 18.53970 15.17520
Si 929  12.44280 18.81690 15.20640
