81
Lattice="21.9108 0.0 0.0 0.0 21.9108 0.0 0.0 0.0 21.9108"
Si 674  3.24590 5.31396 14.80040
Si 731  2.83293 3.51897 12.96170
Si 749  0.62050 5.10097 13.98760
Si 750  0.65810 6.74045 16.11450
Si 774  4.65955 4.81837 11.65670
Si 828  0.94210 7.29957 18.56710
Si 881  -0.37730 4.57168 17.06660
Si 894  -0.46840 8.98117 14.53890
Si 950  2.44917 9.25323 16.30940
Si 989  1.36330 10.87270 14.57520
Si 1003 1.61149 7.62165 21.12610
Si 1007 0.16420 9.91146 22.27080
Si 678  19.46590 0.87560 15.59970
Si 857  21.86750 -0.07690 14.82800
Si 679  14.98590 12.68040 18.40080
Si 681  14.84620 13.93660 16.42530
Si 706  13.20340 14.58680 14.43530
Si 715  15.26030 12.60090 13.64050
Si 737  14.55380 10.19460 14.00400
Si 793  16.77150 14.28390 12.17450
Si 794  18.43280 13.33380 14.14510
Si 814  17.52830 17.15750 11.30840
Si 832  12.83550 8.00753 12.87840
Si 835  12.82090 5.72360 14.05930
Si 842  9.83962 4.28660 14.22190
Si 869  8.85115 4.38084 16.86920
Si 897  9.47815 6.81676 15.96200
Si 920  7.64660 7.65122 14.42550
Si 926  7.30951 7.04341 17.72040
Si 944  11.05930 9.27444 16.76430
Si 949  10.07110 10.76830 18.83990
Si 955  9.64329 8.27331 19.64950
Si 968  7.56983 10.89910 19.35980
Si 976  8.53270 13.57810 19.99520
Si 984  5.95893 14.40840 20.42950
Si 996  9.21257 2.46773 18.69340
Si 680  1.98819 3.16668 20.35730
Si 766  4.11307 1.81282 18.24830
Si 805  4.79478 -0.09810 19.75990
Si 990  6.00449 1.99869 20.89540
Si 686  15.09270 18.88180 6.48617
Si 692  13.98140 16.41600 6.09326
Si 696  13.49040 20.30840 8.69671
Si 703  12.00240 18.12300 5.74200
Si 714  9.92630 18.06140 3.29303
Si 753  8.96028 16.15350 4.85253
Si 765  9.21328 20.60120 2.20976
Si 776  13.86280 21.46200 11.58920
Si 799  11.86390 22.30670 12.82550
Si 817  10.78090 23.91212 10.98430
Si 819  8.63030 22.38410 12.04190
Si 831  15.87520 15.66810 4.55970
Si 847  13.21290 13.65850 5.06151
Si 855  17.20740 15.85630 2.30171
Si 879  18.46370 18.58790 2.19128
Si 930  19.29960 19.96750 0.08790
Si 941  21.53030 19.81410 1.70968
Si 953  21.27020 22.72210 2.40020
Si 983  21.98400 23.42230 4.72239
Si 992  21.14220 24.76657 6.83613
Si 688  9.98885 11.69780 11.63720
Si 723  7.51968 12.41810 9.69531
Si 872  5.09349 11.94590 9.07544
Si 698  15.61190 19.71740 20.44980
Si 752  13.66270 20.68580 18.76830
Si 870  13.60580 21.92100 21.50680
Si 901  14.90470 22.89130 17.13890
Si 965  13.55520 24.33029 15.57490
Si 720  16.92990 1.06110 8.53190
Si 843  14.61450 2.14969 8.98000
Si 727  20.10660 12.55660 6.97239
Si 743  20.31970 15.05180 6.27356
Si 778  3.37249 8.81152 7.84742
Si 796  1.57591 10.74260 7.82865
Si 823  1.49780 8.89469 5.26076
Si 841  -0.41440 7.25384 4.58084
Si 811  16.03260 6.73556 10.56010
Si 974  18.15490 6.19565 8.88901
Si 997  19.18930 6.89469 11.14320
Si 852  1.13690 13.54310 21.31810
Si 963  -1.09400 14.79720 21.81010
