9
Lattice="21.9108 0.0 0.0 0.0 21.9108 0.0 0.0 0.0 21.9108"
Si 704 0.44620 13.10940 8.16012
Si 705 1.57591 10.74260 7.82865
Si 727 -1.80420 12.55660 6.97239
Si 743 -1.59110 15.05180 6.27356
Si 827 1.28950 15.46820 9.32684
Si 834 2.80656 15.27260 7.25876
Si 841 2.55918 17.81290 8.16963
Si 874 3.82990 20.04790 7.09554
Si 991 2.15584 15.70810 11.95760
