12
Lattice="22.7523 0.0 0.0 0.0 22.7523 0.0 0.0 0.0 22.7523"
Si 687 21.084999999999997 0.3277000000000001 9.016000000000002
Si 766 22.126099999999997 1.8318800000000017 10.883100000000002
O 118 22.3175 3.4457500000000003 11.278000000000002
O 262 21.9776 0.8447999999999993 7.727999999999998
O 327 22.2544 1.2948200000000014 12.5641
O 428 21.296200000000002 0.28229999999999933 10.750400000000003
O 428 21.296200000000002 0.28229999999999933 10.750400000000003
O 488 21.3441 21.526299999999996 8.74238
O 495 19.514299999999995 0.4012999999999991 8.554649999999999
O 518 0.8237999999999985 1.4893499999999982 10.240799999999997
O 634 21.1745 2.1524600000000014 9.667730000000002
O 634 21.1745 2.1524600000000014 9.667730000000002
