12
Lattice="22.7523 0.0 0.0 0.0 22.7523 0.0 0.0 0.0 22.7523"
Si 905 20.2957 20.5273 12.039999999999996
Si 988 17.741900000000005 0.6495999999999995 12.6018
O 64 21.587999999999997 21.4819 12.641099999999998
O 247 21.348699999999997 19.5172 11.2407
O 288 19.7197 19.3511 13.082899999999999
O 310 19.3115 21.823200000000003 12.7289
O 310 19.3115 21.823200000000003 12.7289
O 468 17.3184 22.505399999999998 11.341200000000004
O 520 17.2458 0.16629999999999967 14.063999999999997
O 635 19.134400000000003 20.5012 10.855499999999996
O 659 16.779100000000003 2.0487800000000007 12.377100000000002
O 661 19.165499999999998 1.4005200000000002 12.653200000000002
