6
Lattice="22.7523 0.0 0.0 0.0 22.7523 0.0 0.0 0.0 22.7523"
Si 796 18.2189 10.741899999999998 19.2221
O 97 17.311600000000002 9.778139999999997 20.280000000000005
O 148 17.075300000000002 10.205699999999997 18.0425
O 312 19.4046 9.813590000000001 18.672
O 392 18.5909 12.1831 18.2285
O 637 18.8897 11.5352 20.585799999999995
