12
Lattice="22.7523 0.0 0.0 0.0 22.7523 0.0 0.0 0.0 22.7523"
Si 799 16.423400000000004 2.6628299999999996 16.316099999999995
Si 817 17.303699999999996 3.299330000000001 18.651799999999998
O 27 18.4483 2.1629900000000006 18.7604
O 29 14.947700000000001 2.8701299999999996 15.537600000000001
O 185 16.7379 3.023209999999999 20.366699999999998
O 427 15.8845 2.8738600000000005 17.913
O 427 15.8845 2.8738600000000005 17.913
O 438 17.095299999999998 2.9833 14.732800000000001
O 441 17.306699999999996 4.916979999999999 18.769899999999996
O 528 16.562500000000004 1.0576000000000008 16.1925
O 654 17.860199999999995 3.4222 16.8727
O 654 17.860199999999995 3.4222 16.8727
