12
Lattice="22.7523 0.0 0.0 0.0 22.7523 0.0 0.0 0.0 22.7523"
Si 799 16.3691 2.6244900000000015 16.305600000000002
Si 817 17.324 3.3142700000000005 18.677200000000003
O 27 18.605700000000002 2.3888800000000003 18.8567
O 29 14.9222 3.2180800000000005 15.739099999999997
O 185 16.5804 3.083780000000001 20.417000000000005
O 427 16.023100000000003 2.708079999999999 17.9569
O 427 16.023100000000003 2.708079999999999 17.9569
O 438 17.0164 2.881689999999999 14.669100000000004
O 441 17.3147 4.959299999999999 18.664599999999997
O 528 16.2914 0.945999999999998 16.267500000000002
O 654 17.774599999999996 3.3818599999999996 16.7707
O 654 17.774599999999996 3.3818599999999996 16.7707
