30
Lattice="22.7523 0.0 0.0 0.0 22.7523 0.0 0.0 0.0 22.7523"
Si 704 17.744199999999996 18.036000000000005 22.451600000000003
Si 827 19.6046 17.938999999999997 20.729400000000002
Si 874 16.984200000000005 15.638899999999996 21.3372
Si 952 15.647499999999997 19.682400000000005 20.9783
Si 1001 13.743100000000002 20.5553 22.607000000000003
O 20 15.618100000000002 14.700100000000003 21.588600000000003
O 21 16.442399999999996 20.9856 20.0686
O 24 19.219200000000004 18.8291 22.2026
O 24 19.219200000000004 18.8291 22.2026
O 55 18.4329 16.821900000000003 21.4901
O 55 18.4329 16.821900000000003 21.4901
O 55 18.4329 16.821900000000003 21.4901
O 61 15.358799999999999 20.0945 22.5722
O 61 15.358799999999999 20.0945 22.5722
O 96 20.159499999999998 19.3606 20.083000000000002
O 113 16.4432 16.881900000000005 22.6069
O 113 16.4432 16.881900000000005 22.6069
O 246 12.5643 19.407699999999995 22.3381
O 338 14.975600000000004 18.2591 20.397899999999996
O 358 17.046499999999998 18.881599999999995 21.266099999999998
O 358 17.046499999999998 18.881599999999995 21.266099999999998
O 389 13.5029 20.240600000000004 1.5335800000000006
O 425 17.6947 18.573200000000003 1.3023999999999987
O 451 17.994400000000002 14.314600000000002 21.240200000000005
O 497 13.220600000000001 22.0838 22.534200000000002
O 519 14.054399999999998 20.532500000000002 20.8357
O 519 14.054399999999998 20.532500000000002 20.8357
O 532 19.1852 17.3976 19.185400000000005
O 645 21.0478 17.4153 21.178500000000003
O 667 16.527000000000005 16.271999999999995 19.856799999999996
