12
Lattice="22.7523 0.0 0.0 0.0 22.7523 0.0 0.0 0.0 22.7523"
Si 799 16.311399999999995 2.647079999999999 16.283199999999997
Si 817 17.182599999999997 3.27825 18.6105
O 27 18.366599999999995 2.28416 18.9611
O 29 14.7503 2.9987600000000008 15.7043
O 185 16.399999999999995 3.0947999999999993 20.494000000000003
O 427 15.7839 2.764759999999999 17.995899999999995
O 427 15.7839 2.764759999999999 17.995899999999995
O 438 16.923999999999996 2.96603 14.714299999999998
O 441 17.179999999999996 4.915890000000001 18.8171
O 528 16.264299999999995 1.047699999999999 16.207799999999995
O 654 17.633100000000002 3.344269999999998 16.891300000000005
O 654 17.633100000000002 3.344269999999998 16.891300000000005
