30
Lattice="22.7523 0.0 0.0 0.0 22.7523 0.0 0.0 0.0 22.7523"
Si 704 18.082200000000004 18.016700000000004 22.2803
Si 827 19.9678 17.879499999999997 20.645600000000005
Si 874 17.406700000000004 15.654999999999998 21.210600000000003
Si 952 15.874799999999997 19.8011 20.783400000000004
Si 1001 13.8875 20.5665 22.321
O 20 15.949099999999998 14.775200000000002 21.365
O 21 16.733700000000002 21.0127 19.9293
O 24 19.574699999999996 18.782799999999998 22.0296
O 24 19.574699999999996 18.782799999999998 22.0296
O 55 18.7809 16.753199999999996 21.325
O 55 18.7809 16.753199999999996 21.325
O 55 18.7809 16.753199999999996 21.325
O 61 15.4419 20.031499999999998 22.3612
O 61 15.4419 20.031499999999998 22.3612
O 96 20.440699999999996 19.388099999999998 20.007899999999996
O 113 16.792999999999996 16.7713 22.495300000000004
O 113 16.792999999999996 16.7713 22.495300000000004
O 246 12.704200000000004 19.3999 22.066099999999995
O 338 15.279100000000003 18.364300000000004 20.069300000000002
O 358 17.2721 18.986300000000004 21.301800000000004
O 358 17.2721 18.986300000000004 21.301800000000004
O 389 13.636300000000002 20.3713 1.2690200000000011
O 425 18.122599999999995 18.245 1.1622200000000014
O 451 18.257300000000004 14.1553 21.015800000000002
O 497 13.342400000000001 22.1056 22.245899999999995
O 519 14.346799999999998 20.6634 20.578
O 519 14.346799999999998 20.6634 20.578
O 532 19.7647 17.4609 19.024000000000004
O 645 21.4136 17.320799999999995 21.191400000000005
O 667 16.893999999999995 16.264799999999997 19.7784
