6
Lattice="22.7523 0.0 0.0 0.0 22.7523 0.0 0.0 0.0 22.7523"
Si 889 11.3993 7.002220000000001 6.797990000000002
O 44 12.8706 8.12864 7.67398
O 120 12.3398 5.666250000000002 6.84713
O 402 10.605999999999998 7.25591 8.21019
O 417 11.794299999999996 8.114149999999999 5.646699999999999
O 506 10.1159 6.399789999999999 6.018530000000002
