12
Lattice="22.7523 0.0 0.0 0.0 22.7523 0.0 0.0 0.0 22.7523"
Si 687 20.8454 0.5088000000000008 9.274850000000004
Si 766 21.7754 1.9056299999999986 11.232900000000004
O 118 22.081 3.5504800000000003 11.440699999999996
O 262 21.777000000000005 1.0689999999999955 8.03088
O 327 21.879099999999998 1.3919099999999993 12.791999999999998
O 428 20.857000000000003 0.2702999999999989 11.029399999999999
O 428 20.857000000000003 0.2702999999999989 11.029399999999999
O 488 21.176800000000004 21.6915 8.908269999999998
O 495 19.312299999999997 0.4632999999999967 8.73367
O 518 0.3768999999999991 1.451360000000001 10.492099999999997
O 634 20.806500000000003 2.124839999999999 9.89666
O 634 20.806500000000003 2.124839999999999 9.89666
