24
Lattice="22.7523 0.0 0.0 0.0 22.7523 0.0 0.0 0.0 22.7523"
Si 706 3.6202599999999983 10.174299999999999 11.718300000000003
Si 927 4.013590000000001 13.171400000000002 7.74024
Si 944 4.375899999999998 12.439600000000002 10.238200000000003
Si 976 5.583569999999998 10.427600000000002 9.21331
O 65 4.757300000000001 9.71117 8.154529999999998
O 105 4.5994199999999985 10.712799999999998 10.498300000000004
O 105 4.5994199999999985 10.712799999999998 10.498300000000004
O 105 4.5994199999999985 10.712799999999998 10.498300000000004
O 121 7.154969999999999 10.766299999999998 9.115170000000003
O 150 3.889759999999999 10.667100000000001 13.2381
O 184 5.208760000000002 14.099700000000002 6.95515
O 291 5.543220000000002 13.1234 11.025000000000002
O 309 4.057759999999998 11.9098 6.590859999999999
O 333 3.5479200000000013 13.511199999999999 9.26886
O 333 3.5479200000000013 13.511199999999999 9.26886
O 337 2.0778 9.983270000000001 11.402199999999997
O 469 4.38083 8.695409999999999 11.677800000000001
O 482 2.6416700000000013 13.762600000000003 7.081060000000001
O 498 3.175090000000001 12.271800000000002 11.322199999999999
O 498 3.175090000000001 12.271800000000002 11.322199999999999
O 617 5.133790000000001 12.079200000000004 8.764300000000002
O 617 5.133790000000001 12.079200000000004 8.764300000000002
O 617 5.133790000000001 12.079200000000004 8.764300000000002
O 622 6.126740000000002 8.61807 9.783509999999996
