12
Lattice="22.7523 0.0 0.0 0.0 22.7523 0.0 0.0 0.0 22.7523"
Si 870 7.56128 0.5984999999999943 11.1223
Si 965 9.8203 21.9211 11.045100000000001
O 57 6.9704799999999985 1.9827499999999993 10.555299999999999
O 78 8.596990000000002 21.5495 12.063999999999997
O 78 8.596990000000002 21.5495 12.063999999999997
O 205 10.928100000000004 20.7268 11.657900000000001
O 266 9.600399999999997 20.9545 9.707470000000004
O 330 6.47569 22.326799999999995 10.511100000000003
O 424 8.823080000000001 0.39469999999999317 10.195399999999996
O 424 8.823080000000001 0.39469999999999317 10.195399999999996
O 536 10.5744 0.46520000000000294 11.735499999999998
O 569 8.226789999999998 1.397829999999999 12.378699999999998
