12
Lattice="22.7523 0.0 0.0 0.0 22.7523 0.0 0.0 0.0 22.7523"
Si 722 16.8871 13.634000000000004 11.743799999999997
Si 828 16.483899999999995 11.798599999999997 14.340999999999998
O 220 18.788500000000003 14.0748 12.221300000000003
O 308 17.5896 12.384899999999998 15.4881
O 329 16.250900000000005 10.6294 15.830900000000003
O 345 14.803900000000002 11.689399999999996 14.1264
O 356 15.516499999999997 13.344100000000001 10.964400000000001
O 467 16.770100000000003 12.851400000000002 13.120099999999997
O 467 16.770100000000003 12.851400000000002 13.120099999999997
O 477 17.101699999999997 10.447399999999998 13.566399999999998
O 483 17.8719 13.332699999999999 10.3443
O 505 16.582799999999995 15.324299999999997 11.8336
