6
Lattice="22.7523 0.0 0.0 0.0 22.7523 0.0 0.0 0.0 22.7523"
Si 862 7.07282 16.5928 13.257499999999997
O 86 6.096720000000001 17.6641 14.032500000000002
O 432 6.160050000000002 15.252599999999997 12.7668
O 496 7.10633 15.509899999999998 15.025400000000001
O 559 7.2133199999999995 17.3835 11.714299999999998
O 640 8.67116 16.0406 13.164999999999996
