12
Lattice="22.7523 0.0 0.0 0.0 22.7523 0.0 0.0 0.0 22.7523"
Si 687 20.715499999999995 0.48499999999999943 9.31999
Si 766 21.768000000000004 1.8379799999999982 11.130599999999998
O 118 21.929599999999997 3.469660000000001 11.461900000000004
O 262 21.7394 0.9429000000000016 7.968880000000002
O 327 21.9798 1.2801100000000005 12.671200000000002
O 428 20.897700000000004 0.2856999999999985 10.984600000000004
O 428 20.897700000000004 0.2856999999999985 10.984600000000004
O 488 21.154299999999996 21.714500000000005 8.994420000000002
O 495 19.228799999999996 0.329500000000003 8.77881
O 518 0.4131 1.6353299999999997 10.3351
O 634 20.614099999999997 2.1671699999999987 9.839230000000004
O 634 20.614099999999997 2.1671699999999987 9.839230000000004
