6
Lattice="22.7523 0.0 0.0 0.0 22.7523 0.0 0.0 0.0 22.7523"
Si 802 12.0018 5.946400000000001 10.957399999999996
O 66 12.982099999999999 7.004480000000001 10.119000000000003
O 413 10.797999999999998 5.797750000000001 9.837369999999996
O 480 11.7514 6.96894 12.194700000000001
O 610 11.241899999999998 4.736740000000001 11.986799999999999
O 666 13.209999999999997 4.760909999999999 10.731399999999997
