12
Lattice="22.7523 0.0 0.0 0.0 22.7523 0.0 0.0 0.0 22.7523"
Si 687 21.0288 0.40919999999999845 9.205450000000003
Si 766 22.004499999999997 1.830919999999999 10.998499999999996
O 118 22.289599999999997 3.461590000000001 11.212500000000002
O 262 21.9031 1.0107999999999961 7.898700000000002
O 327 22.0329 1.4624200000000016 12.683400000000002
O 428 21.1835 0.31230000000000047 10.923300000000001
O 428 21.1835 0.31230000000000047 10.923300000000001
O 488 21.4849 21.673800000000004 8.790229999999998
O 495 19.4517 0.26719999999999544 8.753350000000001
O 518 0.6103999999999985 1.3668900000000015 10.337300000000003
O 634 20.9577 2.17211 9.723789999999997
O 634 20.9577 2.17211 9.723789999999997
