12
Lattice="22.7523 0.0 0.0 0.0 22.7523 0.0 0.0 0.0 22.7523"
Si 869 6.754540000000002 17.0063 5.4523399999999995
Si 949 8.793319999999998 15.772899999999996 6.495740000000001
O 60 6.748709999999999 18.3051 4.430199999999999
O 85 10.2163 16.6399 6.731919999999999
O 202 7.379149999999999 16.8552 7.0198
O 202 7.379149999999999 16.8552 7.0198
O 255 8.70365 14.9603 8.0608
O 260 8.376470000000001 16.6322 5.02215
O 260 8.376470000000001 16.6322 5.02215
O 530 8.991600000000002 14.3017 5.60314
O 543 5.196100000000001 17.376499999999997 5.978819999999999
O 625 6.30649 15.451200000000004 4.885100000000001
