12
Lattice="22.7523 0.0 0.0 0.0 22.7523 0.0 0.0 0.0 22.7523"
Si 722 16.926 13.641499999999997 11.749199999999998
Si 828 16.5061 11.7454 14.329200000000004
O 220 18.9744 13.867300000000004 12.410900000000002
O 308 17.603600000000004 12.548400000000004 15.2756
O 329 16.334099999999996 10.7747 15.8355
O 345 14.852799999999998 11.777899999999999 14.215399999999999
O 356 15.644299999999998 13.589099999999998 10.771000000000004
O 467 16.723900000000004 12.578599999999998 12.888099999999998
O 467 16.723900000000004 12.578599999999998 12.888099999999998
O 477 17.0099 10.2792 13.658400000000004
O 483 18.0151 13.359399999999997 10.431500000000003
O 505 16.793700000000005 15.2208 12.170800000000003
