6
Lattice="22.7523 0.0 0.0 0.0 22.7523 0.0 0.0 0.0 22.7523"
Si 1006 7.208590000000001 6.055600000000002 18.6213
O 151 6.827180000000002 5.152719999999999 17.290899999999997
O 207 6.331700000000001 7.349999999999998 19.056100000000004
O 546 8.496460000000003 5.20579 19.342199999999995
O 598 8.44153 7.085840000000001 17.8914
O 656 6.11458 4.923159999999999 19.7238
