12
Lattice="22.7523 0.0 0.0 0.0 22.7523 0.0 0.0 0.0 22.7523"
Si 869 7.022500000000001 16.9383 5.360250000000001
Si 949 9.014680000000002 15.803100000000004 6.313579999999998
O 60 6.9528500000000015 18.255600000000005 4.402260000000002
O 85 10.229000000000003 16.7518 6.747429999999998
O 202 7.5982400000000005 16.821500000000004 6.893940000000001
O 202 7.5982400000000005 16.821500000000004 6.893940000000001
O 255 8.824299999999997 14.905599999999996 7.715209999999999
O 260 8.65205 16.6446 4.9460000000000015
O 260 8.65205 16.6446 4.9460000000000015
O 530 9.761619999999997 14.6553 5.442080000000001
O 543 5.4704799999999985 17.171200000000002 5.903269999999999
O 625 6.559259999999998 15.377100000000002 4.8509899999999995
