12
Lattice="22.7523 0.0 0.0 0.0 22.7523 0.0 0.0 0.0 22.7523"
Si 869 6.800509999999999 16.9367 5.47242
Si 949 8.802800000000001 15.781000000000002 6.619699999999998
O 60 6.83334 18.3531 4.494229999999998
O 85 10.197500000000002 16.5491 6.8156500000000015
O 202 7.40596 16.797100000000004 7.045159999999999
O 202 7.40596 16.797100000000004 7.045159999999999
O 255 8.716379999999997 15.011100000000003 8.06652
O 260 8.419599999999999 16.641300000000005 5.11224
O 260 8.419599999999999 16.641300000000005 5.11224
O 530 9.19032 14.365100000000002 5.7687300000000015
O 543 5.17915 17.227499999999996 5.916900000000002
O 625 6.24511 15.400700000000004 5.014669999999999
