6
Lattice="22.7523 0.0 0.0 0.0 22.7523 0.0 0.0 0.0 22.7523"
Si 862 7.3362300000000005 16.4286 13.080299999999998
O 86 6.38017 17.5249 13.9528
O 432 6.498290000000001 15.0596 12.502500000000001
O 496 7.269069999999999 15.398900000000001 14.619600000000002
O 559 7.42661 17.318100000000005 11.612100000000002
O 640 8.89199 15.8884 12.9637
