8
Lattice="21.1357 0.0 0.0 0.0 21.1357 0.0 0.0 0.0 21.1357"
Si 783 20.92130 9.98693 4.10189
Si 785 23.54701 8.10579 5.05977
Si 795 25.28666 10.76610 4.07945
Si 832 23.26414 6.43045 6.73740
Si 872 26.07385 7.42876 3.15298
Si 880 24.49998 8.97888 2.25535
Si 956 24.55602 7.89790 0.14690
Si 981 24.69375 4.37082 2.93389
